** sch_path: /home/mthudaa/Documents/UNIC-CASS-TSAR-ADC-ITS/xschem/cdac_sw_1.sch
.subckt cdac_sw_1 vdda cki bi vcm vssa dac_out
*.PININFO vdda:I cki:I bi:I vcm:I vssa:I dac_out:O
*  x1 -  nooverlap_clk  IS MISSING !!!!
*  x2 -  tg_sw_1  IS MISSING !!!!
*  x3 -  dac_sw_1  IS MISSING !!!!
.ends
.end
