* PEX produced on Jum 08 Nov 2024 03:54:37  CST using ./iic-pex.sh with m=3 and s=1
* NGSPICE file created from sar.ext - technology: sky130A

.subckt sar CKO DOUT[0] DOUT[1] DOUT[2] DOUT[3] DOUT[4] DOUT[5] DOUT[6] DOUT[7] DOUT[8]
+ DOUT[9] CLKS CLKSB CLK EN VSSD VDDD CF[0] CF[1] CF[2] CF[3] CF[4] CF[5] CF[6] CF[7]
+ CF[8] CF[9] SWP[9] SWP[8] SWP[7] SWP[6] SWP[5] SWP[4] SWP[3] SWP[2] SWP[1] SWP[0]
+ SWN[9] SWN[8] SWN[7] SWN[6] SWN[5] SWN[4] SWN[3] SWN[2] SWN[1] SWN[0] COMP_P COMP_N
X0 VDDD.t1069 a_7068_n1029.t4 a_7243_n1055.t2 VDDD.t1068 sky130_fd_pr__pfet_01v8_hvt ad=0.1134 pd=1.38 as=0.0567 ps=0.69 w=0.42 l=0.15
X1 a_n1085_3923.t2 a_n1709_3557.t2 a_n1193_3557.t2 VDDD.t1133 sky130_fd_pr__pfet_01v8_hvt ad=0.1155 pd=0.97 as=0.07245 ps=0.765 w=0.42 l=0.15
X2 a_n4691_n10054.t2 a_n4909_n9650.t4 VDDD.t724 VDDD.t723 sky130_fd_pr__pfet_01v8_hvt ad=0.12915 pd=1.185 as=0.2184 ps=2.2 w=0.84 l=0.15
X3 VSSD.t1111 CLKS.t16 a_n2715_n9662.t0 VSSD.t1053 sky130_fd_pr__nfet_01v8 ad=0.1346 pd=1.15 as=0.0441 ps=0.63 w=0.42 l=0.15
X4 a_5624_n5650.t1 a_5911_n5372.t4 VDDD.t228 VDDD.t227 sky130_fd_pr__pfet_01v8_hvt ad=0.0567 pd=0.69 as=0.1134 ps=1.38 w=0.42 l=0.15
X5 a_3236_3557.t2 a_2155_3557.t2 a_2889_3799.t3 VDDD.t124 sky130_fd_pr__pfet_01v8_hvt ad=0.0588 pd=0.7 as=0.12915 ps=1.185 w=0.42 l=0.15
X6 a_4679_n663.t2 CLKS.t17 VDDD.t545 VDDD.t544 sky130_fd_pr__pfet_01v8_hvt ad=0.1092 pd=1.36 as=0.07035 ps=0.755 w=0.42 l=0.15
X7 a_8520_n9662.t2 cdac_ctrl_0.x2.X.t16 VSSD.t936 VSSD.t897 sky130_fd_pr__nfet_01v8 ad=0.066 pd=0.745 as=0.2205 ps=1.89 w=0.42 l=0.15
X8 out_latch_0.FINAL.t15 a_n784_n1599.t6 VDDD.t672 VDDD.t671 sky130_fd_pr__pfet_01v8_hvt ad=0.135 pd=1.27 as=0.135 ps=1.27 w=1 l=0.15
X9 VSSD.t421 a_8160_n5482.t2 a_8121_n5356.t0 VSSD.t420 sky130_fd_pr__nfet_01v8 ad=0.0567 pd=0.69 as=0.1092 ps=1.36 w=0.42 l=0.15
X10 a_855_n1331.t1 CLK.t0 VDDD.t694 VDDD.t693 sky130_fd_pr__pfet_01v8_hvt ad=0.1664 pd=1.8 as=0.0864 ps=0.91 w=0.64 l=0.15
X11 VSSD.t54 a_7274_2691.t3 auto_sampling_0.x21.D.t1 VSSD.t53 sky130_fd_pr__nfet_01v8 ad=0.169 pd=1.82 as=0.08775 ps=0.92 w=0.65 l=0.15
X12 VSSD.t245 a_n10393_n10028.t6 cdac_ctrl_0.x2.X.t0 VSSD.t193 sky130_fd_pr__nfet_01v8 ad=0.08775 pd=0.92 as=0.08775 ps=0.92 w=0.65 l=0.15
X13 a_6779_n9484.t1 a_6333_n9484.t2 a_6683_n9484.t1 VSSD.t443 sky130_fd_pr__special_nfet_01v8 ad=0.1401 pd=1.1 as=0.0594 ps=0.69 w=0.36 l=0.15
X14 a_n8555_n9242.t3 a_n8773_n9484.t4 VDDD.t382 VDDD.t381 sky130_fd_pr__pfet_01v8_hvt ad=0.12915 pd=1.185 as=0.2184 ps=2.2 w=0.84 l=0.15
X15 VDDD.t763 a_4452_n5387.t4 a_4383_n5258.t2 VDDD.t762 sky130_fd_pr__pfet_01v8_hvt ad=0.2184 pd=2.2 as=0.12915 ps=1.185 w=0.84 l=0.15
X16 a_2830_n5624.t0 a_2451_n5258.t4 a_2758_n5624.t0 VSSD.t52 sky130_fd_pr__nfet_01v8 ad=0.1401 pd=1.1 as=0.0441 ps=0.63 w=0.42 l=0.15
X17 VDDD.t1078 a_4713_n4702.t4 a_4888_n4776.t1 VDDD.t1077 sky130_fd_pr__pfet_01v8_hvt ad=0.1134 pd=1.38 as=0.0567 ps=0.69 w=0.42 l=0.15
X18 a_n480_n9650.t0 a_n1395_n10022.t2 a_n827_n10054.t0 VSSD.t775 sky130_fd_pr__special_nfet_01v8 ad=0.0711 pd=0.755 as=0.0999 ps=0.985 w=0.36 l=0.15
X19 DOUT[0].t3 a_n172_n5650.t3 VDDD.t811 VDDD.t810 sky130_fd_pr__pfet_01v8_hvt ad=0.135 pd=1.27 as=0.26 ps=2.52 w=1 l=0.15
X20 VSSD.t1163 a_n454_2691.t3 auto_sampling_0.x22.A.t1 VSSD.t1162 sky130_fd_pr__nfet_01v8 ad=0.169 pd=1.82 as=0.08775 ps=0.92 w=0.65 l=0.15
X21 a_1011_n5080.t0 a_n66_n5074.t2 a_849_n4702.t0 VDDD.t698 sky130_fd_pr__pfet_01v8_hvt ad=0.0567 pd=0.69 as=0.0588 ps=0.7 w=0.42 l=0.15
X22 a_995_n9118.t0 a_371_n9484.t2 a_887_n9484.t0 VDDD.t1402 sky130_fd_pr__pfet_01v8_hvt ad=0.1155 pd=0.97 as=0.07245 ps=0.765 w=0.42 l=0.15
X23 a_n1193_3557.t0 a_n1543_3557.t2 a_n1288_3557.t0 VDDD.t252 sky130_fd_pr__pfet_01v8_hvt ad=0.07245 pd=0.765 as=0.0651 ps=0.73 w=0.42 l=0.15
X24 VSSD.t735 a_n305_n9510.t3 a_n371_n9484.t1 VSSD.t137 sky130_fd_pr__nfet_01v8 ad=0.12495 pd=1.015 as=0.0669 ps=0.75 w=0.42 l=0.15
X25 a_n2869_n10028.t2 CLKS.t18 VDDD.t547 VDDD.t546 sky130_fd_pr__pfet_01v8_hvt ad=0.1092 pd=1.36 as=0.07035 ps=0.755 w=0.42 l=0.15
X26 a_n8665_n9118.t2 CLKS.t19 VDDD.t631 VDDD.t630 sky130_fd_pr__pfet_01v8_hvt ad=0.1092 pd=1.36 as=0.07035 ps=0.755 w=0.42 l=0.15
X27 a_1626_n1029.t1 CLKS.t20 VSSD.t1110 VSSD.t1109 sky130_fd_pr__nfet_01v8 ad=0.06405 pd=0.725 as=0.12495 ps=1.015 w=0.42 l=0.15
X28 a_3397_3083.t0 a_2320_2717.t2 a_3235_2717.t1 VDDD.t409 sky130_fd_pr__pfet_01v8_hvt ad=0.0567 pd=0.69 as=0.0588 ps=0.7 w=0.42 l=0.15
X29 VDDD.t1059 EN.t0 a_4597_n5258.t0 VDDD.t1058 sky130_fd_pr__pfet_01v8_hvt ad=0.07035 pd=0.755 as=0.1092 ps=1.36 w=0.42 l=0.15
X30 VSSD.t392 a_8583_n1331.t2 a_8544_n1457.t0 VSSD.t391 sky130_fd_pr__nfet_01v8 ad=0.0567 pd=0.69 as=0.1092 ps=1.36 w=0.42 l=0.15
X31 VSSD.t342 a_1479_3531.t3 a_1413_3557.t0 VSSD.t341 sky130_fd_pr__nfet_01v8 ad=0.12495 pd=1.015 as=0.0669 ps=0.75 w=0.42 l=0.15
X32 a_5311_n1055.t2 CLKS.t21 VDDD.t633 VDDD.t632 sky130_fd_pr__pfet_01v8_hvt ad=0.0567 pd=0.69 as=0.0819 ps=0.81 w=0.42 l=0.15
X33 a_8615_n9650.t1 a_8099_n10022.t2 a_8520_n9662.t0 VSSD.t23 sky130_fd_pr__special_nfet_01v8 ad=0.0594 pd=0.69 as=0.066 ps=0.745 w=0.36 l=0.15
X34 a_7843_n5372.t0 a_8121_n5356.t2 a_8077_n5258.t1 VDDD.t1284 sky130_fd_pr__pfet_01v8_hvt ad=0.0588 pd=0.7 as=0.0567 ps=0.69 w=0.42 l=0.15
X35 a_n975_3799.t2 a_n1193_3557.t4 VSSD.t844 VSSD.t843 sky130_fd_pr__nfet_01v8 ad=0.0999 pd=0.985 as=0.1346 ps=1.15 w=0.64 l=0.15
X36 VSSD.t559 CLK.t1 a_2155_3557.t1 VSSD.t558 sky130_fd_pr__nfet_01v8 ad=0.0567 pd=0.69 as=0.1092 ps=1.36 w=0.42 l=0.15
X37 a_6754_n4702.t0 a_5564_n5074.t2 a_6645_n4702.t1 VSSD.t490 sky130_fd_pr__special_nfet_01v8 ad=0.0669 pd=0.75 as=0.0711 ps=0.755 w=0.36 l=0.15
X38 CF[5].t3 a_9175_n1055.t3 VDDD.t1230 VDDD.t1229 sky130_fd_pr__pfet_01v8_hvt ad=0.135 pd=1.27 as=0.3012 ps=2.66 w=1 l=0.15
X39 a_8466_2717.t1 a_7950_2717.t2 a_8371_2717.t0 VSSD.t923 sky130_fd_pr__special_nfet_01v8 ad=0.0594 pd=0.69 as=0.066 ps=0.745 w=0.36 l=0.15
X40 VSSD.t5 CF[4].t4 a_n1561_n10022.t0 VSSD.t2 sky130_fd_pr__nfet_01v8 ad=0.0567 pd=0.69 as=0.1092 ps=1.36 w=0.42 l=0.15
X41 VDDD.t918 CF[8].t4 a_6167_n10022.t1 VDDD.t917 sky130_fd_pr__pfet_01v8_hvt ad=0.0864 pd=0.91 as=0.1664 ps=1.8 w=0.64 l=0.15
X42 CF[3].t3 a_6047_n1599.t3 VDDD.t1076 VDDD.t1075 sky130_fd_pr__pfet_01v8_hvt ad=0.135 pd=1.27 as=0.26 ps=2.52 w=1 l=0.15
X43 a_4969_n9242.t1 a_4751_n9484.t4 VDDD.t1228 VDDD.t1227 sky130_fd_pr__pfet_01v8_hvt ad=0.12915 pd=1.185 as=0.2184 ps=2.2 w=0.84 l=0.15
X44 VDDD.t1127 a_502_n5106.t4 a_392_n5080.t2 VDDD.t1126 sky130_fd_pr__pfet_01v8_hvt ad=0.07035 pd=0.755 as=0.1155 ps=0.97 w=0.42 l=0.15
X45 VSSD.t216 a_1447_n1055.t3 a_1381_n1029.t0 VSSD.t215 sky130_fd_pr__nfet_01v8 ad=0.12495 pd=1.015 as=0.0669 ps=0.75 w=0.42 l=0.15
X46 VDDD.t1101 a_1024_n4776.t3 a_1011_n5080.t1 VDDD.t1100 sky130_fd_pr__pfet_01v8_hvt ad=0.0819 pd=0.81 as=0.0567 ps=0.69 w=0.42 l=0.15
X47 a_n937_n10028.t2 CLKS.t22 VDDD.t635 VDDD.t634 sky130_fd_pr__pfet_01v8_hvt ad=0.1092 pd=1.36 as=0.07035 ps=0.755 w=0.42 l=0.15
X48 a_5425_n9650.t0 a_4235_n10022.t2 a_5316_n9650.t0 VSSD.t149 sky130_fd_pr__special_nfet_01v8 ad=0.0669 pd=0.75 as=0.0711 ps=0.755 w=0.36 l=0.15
X49 a_6947_n5258.t0 a_6189_n5356.t2 a_6384_n5387.t1 VDDD.t1191 sky130_fd_pr__pfet_01v8_hvt ad=0.0651 pd=0.73 as=0.07245 ps=0.765 w=0.42 l=0.15
X50 a_n1097_3557.t0 a_n1543_3557.t3 a_n1193_3557.t1 VSSD.t238 sky130_fd_pr__special_nfet_01v8 ad=0.1401 pd=1.1 as=0.0594 ps=0.69 w=0.36 l=0.15
X51 a_2889_3799.t0 a_2671_3557.t4 VDDD.t351 VDDD.t350 sky130_fd_pr__pfet_01v8_hvt ad=0.12915 pd=1.185 as=0.2184 ps=2.2 w=0.84 l=0.15
X52 a_n4691_n10054.t3 a_n4909_n9650.t5 VSSD.t835 VSSD.t834 sky130_fd_pr__nfet_01v8 ad=0.0999 pd=0.985 as=0.1346 ps=1.15 w=0.64 l=0.15
X53 VDDD.t1061 EN.t1 a_3692_n5650.t0 VDDD.t1060 sky130_fd_pr__pfet_01v8_hvt ad=0.0819 pd=0.81 as=0.0567 ps=0.69 w=0.42 l=0.15
X54 VDDD.t283 CF[9].t4 a_8099_n10022.t0 VDDD.t282 sky130_fd_pr__pfet_01v8_hvt ad=0.0864 pd=0.91 as=0.1664 ps=1.8 w=0.64 l=0.15
X55 a_n628_3557.t1 a_n1543_3557.t4 a_n975_3799.t0 VSSD.t239 sky130_fd_pr__special_nfet_01v8 ad=0.0711 pd=0.755 as=0.0999 ps=0.985 w=0.36 l=0.15
X56 a_8752_n4776.t2 a_8577_n4702.t4 a_8931_n4714.t1 VSSD.t242 sky130_fd_pr__nfet_01v8 ad=0.1092 pd=1.36 as=0.06405 ps=0.725 w=0.42 l=0.15
X57 VSSD.t105 SWP[4].t4 a_5015_n5258.t0 VSSD.t104 sky130_fd_pr__nfet_01v8 ad=0.2205 pd=1.89 as=0.066 ps=0.745 w=0.42 l=0.15
X58 a_5343_3531.t0 EN.t2 VDDD.t1063 VDDD.t1062 sky130_fd_pr__pfet_01v8_hvt ad=0.0567 pd=0.69 as=0.0819 ps=0.81 w=0.42 l=0.15
X59 CLKS.t4 auto_sampling_0.x24.A.t8 VSSD.t211 VSSD.t210 sky130_fd_pr__nfet_01v8 ad=0.08775 pd=0.92 as=0.08775 ps=0.92 w=0.65 l=0.15
X60 VDDD.t419 a_2888_2959.t4 a_2778_3083.t1 VDDD.t418 sky130_fd_pr__pfet_01v8_hvt ad=0.07035 pd=0.755 as=0.1155 ps=0.97 w=0.42 l=0.15
X61 a_n8868_n9662.t3 cdac_ctrl_0.x2.X.t17 VDDD.t1184 VDDD.t1183 sky130_fd_pr__pfet_01v8_hvt ad=0.0651 pd=0.73 as=0.1092 ps=1.36 w=0.42 l=0.15
X62 VDDD.t1242 a_4888_n4776.t3 DOUT[5].t3 VDDD.t1241 sky130_fd_pr__pfet_01v8_hvt ad=0.26 pd=2.52 as=0.135 ps=1.27 w=1 l=0.15
X63 a_7068_n1029.t0 a_5987_n1029.t2 a_6721_n787.t3 VDDD.t366 sky130_fd_pr__pfet_01v8_hvt ad=0.0588 pd=0.7 as=0.12915 ps=1.185 w=0.42 l=0.15
X64 auto_sampling_0.x21.Q.t3 a_9206_2691.t3 VDDD.t404 VDDD.t403 sky130_fd_pr__pfet_01v8_hvt ad=0.135 pd=1.27 as=0.3012 ps=2.66 w=1 l=0.15
X65 VSSD.t827 EN.t3 a_4864_2717.t0 VSSD.t826 sky130_fd_pr__nfet_01v8 ad=0.1346 pd=1.15 as=0.0441 ps=0.63 w=0.42 l=0.15
X66 a_815_n663.t2 CLKS.t23 VDDD.t637 VDDD.t636 sky130_fd_pr__pfet_01v8_hvt ad=0.1092 pd=1.36 as=0.07035 ps=0.755 w=0.42 l=0.15
X67 VDDD.t226 auto_sampling_0.x24.A.t9 CLKS.t5 VDDD.t225 sky130_fd_pr__pfet_01v8_hvt ad=0.135 pd=1.27 as=0.135 ps=1.27 w=1 l=0.15
X68 a_6440_3557.t3 auto_sampling_0.x5.D.t4 VDDD.t817 VDDD.t816 sky130_fd_pr__pfet_01v8_hvt ad=0.0651 pd=0.73 as=0.1092 ps=1.36 w=0.42 l=0.15
X69 a_n6841_n9484.t2 a_n7357_n9484.t2 a_n6936_n9484.t1 VSSD.t4 sky130_fd_pr__special_nfet_01v8 ad=0.0594 pd=0.69 as=0.066 ps=0.745 w=0.36 l=0.15
X70 a_8230_n5106.t2 a_8012_n4702.t4 VSSD.t477 VSSD.t476 sky130_fd_pr__nfet_01v8 ad=0.0999 pd=0.985 as=0.1346 ps=1.15 w=0.64 l=0.15
X71 VSSD.t1108 CLKS.t24 a_2505_n1207.t1 VSSD.t1107 sky130_fd_pr__nfet_01v8 ad=0.12495 pd=1.015 as=0.06405 ps=0.725 w=0.42 l=0.15
X72 VDDD.t809 a_4969_n10054.t4 a_4859_n10028.t1 VDDD.t808 sky130_fd_pr__pfet_01v8_hvt ad=0.07035 pd=0.755 as=0.1155 ps=0.97 w=0.42 l=0.15
X73 a_n6733_n9118.t0 a_n7357_n9484.t3 a_n6841_n9484.t1 VDDD.t804 sky130_fd_pr__pfet_01v8_hvt ad=0.1155 pd=0.97 as=0.07245 ps=0.765 w=0.42 l=0.15
X74 a_2520_n5387.t1 a_2364_n5482.t2 a_2665_n5258.t2 VDDD.t628 sky130_fd_pr__pfet_01v8_hvt ad=0.07245 pd=0.765 as=0.1155 ps=0.97 w=0.42 l=0.15
X75 a_n2715_n9662.t1 a_n2759_n10054.t4 a_n2881_n9650.t1 VSSD.t142 sky130_fd_pr__nfet_01v8 ad=0.0441 pd=0.63 as=0.1401 ps=1.1 w=0.42 l=0.15
X76 CF[9].t1 a_1447_n1055.t4 VSSD.t218 VSSD.t217 sky130_fd_pr__nfet_01v8 ad=0.08775 pd=0.92 as=0.2087 ps=2.02 w=0.65 l=0.15
X77 a_n6167_n9650.t1 a_n7357_n10022.t2 a_n6276_n9650.t3 VSSD.t520 sky130_fd_pr__special_nfet_01v8 ad=0.0669 pd=0.75 as=0.0711 ps=0.755 w=0.36 l=0.15
X78 a_6945_n9662.t0 a_6901_n10054.t4 a_6779_n9650.t0 VSSD.t505 sky130_fd_pr__nfet_01v8 ad=0.0441 pd=0.63 as=0.1401 ps=1.1 w=0.42 l=0.15
X79 a_2478_n4714.t1 a_2434_n5106.t4 a_2312_n4702.t0 VSSD.t197 sky130_fd_pr__nfet_01v8 ad=0.0441 pd=0.63 as=0.1401 ps=1.1 w=0.42 l=0.15
X80 VSSD.t873 a_n6101_n9724.t3 SWN[1].t1 VSSD.t684 sky130_fd_pr__nfet_01v8 ad=0.169 pd=1.82 as=0.08775 ps=0.92 w=0.65 l=0.15
X81 a_4667_n1029.t0 a_4221_n1029.t2 a_4571_n1029.t1 VSSD.t757 sky130_fd_pr__special_nfet_01v8 ad=0.1401 pd=1.1 as=0.0594 ps=0.69 w=0.36 l=0.15
X82 a_9180_n9484.t1 a_8099_n9484.t2 a_8833_n9242.t1 VDDD.t18 sky130_fd_pr__pfet_01v8_hvt ad=0.0588 pd=0.7 as=0.12915 ps=1.185 w=0.42 l=0.15
X83 VDDD.t798 a_n4691_n9242.t4 a_n4801_n9118.t0 VDDD.t797 sky130_fd_pr__pfet_01v8_hvt ad=0.07035 pd=0.755 as=0.1155 ps=0.97 w=0.42 l=0.15
X84 a_9487_n5472.t0 out_latch_0.FINAL.t16 a_9661_n5596.t0 VSSD.t759 sky130_fd_pr__nfet_01v8 ad=0.1176 pd=1.4 as=0.0567 ps=0.69 w=0.42 l=0.15
X85 VSSD.t1137 a_3379_n1055.t3 CF[8].t1 VSSD.t1136 sky130_fd_pr__nfet_01v8 ad=0.169 pd=1.82 as=0.08775 ps=0.92 w=0.65 l=0.15
X86 a_6047_n1599.t1 a_6334_n1441.t4 VDDD.t800 VDDD.t799 sky130_fd_pr__pfet_01v8_hvt ad=0.0567 pd=0.69 as=0.1134 ps=1.38 w=0.42 l=0.15
X87 VDDD.t1222 SWP[8].t4 a_8879_n5258.t1 VDDD.t1221 sky130_fd_pr__pfet_01v8_hvt ad=0.1092 pd=1.36 as=0.0651 ps=0.73 w=0.42 l=0.15
X88 a_7275_3531.t1 a_7100_3557.t4 a_7454_3557.t1 VSSD.t99 sky130_fd_pr__nfet_01v8 ad=0.1092 pd=1.36 as=0.06405 ps=0.725 w=0.42 l=0.15
X89 VDDD.t677 a_5311_n1055.t3 a_5298_n663.t0 VDDD.t676 sky130_fd_pr__pfet_01v8_hvt ad=0.0819 pd=0.81 as=0.0567 ps=0.69 w=0.42 l=0.15
X90 VDDD.t244 a_n2237_n9510.t3 a_n2250_n9118.t0 VDDD.t243 sky130_fd_pr__pfet_01v8_hvt ad=0.0819 pd=0.81 as=0.0567 ps=0.69 w=0.42 l=0.15
X91 VSSD.t780 a_3411_3531.t3 auto_sampling_0.x3.D.t1 VSSD.t779 sky130_fd_pr__nfet_01v8 ad=0.169 pd=1.82 as=0.08775 ps=0.92 w=0.65 l=0.15
X92 a_6645_n4702.t2 a_5730_n5074.t2 a_6298_n5106.t2 VSSD.t576 sky130_fd_pr__special_nfet_01v8 ad=0.0711 pd=0.755 as=0.0999 ps=0.985 w=0.36 l=0.15
X93 VSSD.t496 a_855_n1331.t2 a_816_n1457.t0 VSSD.t495 sky130_fd_pr__nfet_01v8 ad=0.0567 pd=0.69 as=0.1092 ps=1.36 w=0.42 l=0.15
X94 a_n4182_n9118.t0 a_n5259_n9484.t2 a_n4344_n9484.t1 VDDD.t593 sky130_fd_pr__pfet_01v8_hvt ad=0.0567 pd=0.69 as=0.0588 ps=0.7 w=0.42 l=0.15
X95 a_4401_n9484.t0 a_4235_n9484.t2 VSSD.t739 VSSD.t436 sky130_fd_pr__nfet_01v8 ad=0.1092 pd=1.36 as=0.0567 ps=0.69 w=0.42 l=0.15
X96 CF[8].t2 a_3379_n1055.t4 VDDD.t1366 VDDD.t1365 sky130_fd_pr__pfet_01v8_hvt ad=0.135 pd=1.27 as=0.3012 ps=2.66 w=1 l=0.15
X97 a_7100_3557.t3 a_6019_3557.t2 a_6753_3799.t2 VDDD.t764 sky130_fd_pr__pfet_01v8_hvt ad=0.0588 pd=0.7 as=0.12915 ps=1.185 w=0.42 l=0.15
X98 a_847_3923.t0 EN.t4 VDDD.t1065 VDDD.t1064 sky130_fd_pr__pfet_01v8_hvt ad=0.1092 pd=1.36 as=0.07035 ps=0.755 w=0.42 l=0.15
X99 a_6738_n1573.t0 a_6651_n1331.t2 a_6334_n1441.t0 VDDD.t697 sky130_fd_pr__pfet_01v8_hvt ad=0.12915 pd=1.185 as=0.0588 ps=0.7 w=0.42 l=0.15
X100 a_4806_n1573.t3 a_4680_n1457.t2 a_4402_n1441.t1 VSSD.t995 sky130_fd_pr__special_nfet_01v8 ad=0.0999 pd=0.985 as=0.0711 ps=0.755 w=0.36 l=0.15
X101 a_5316_n9650.t2 a_4401_n10022.t2 a_4969_n10054.t2 VSSD.t534 sky130_fd_pr__special_nfet_01v8 ad=0.0711 pd=0.755 as=0.0999 ps=0.985 w=0.36 l=0.15
X102 VDDD.t551 a_n480_n9484.t4 a_n305_n9510.t0 VDDD.t550 sky130_fd_pr__pfet_01v8_hvt ad=0.1134 pd=1.38 as=0.0567 ps=0.69 w=0.42 l=0.15
X103 VSSD.t1106 CLKS.t25 a_n4647_n9662.t1 VSSD.t1047 sky130_fd_pr__nfet_01v8 ad=0.1346 pd=1.15 as=0.0441 ps=0.63 w=0.42 l=0.15
X104 a_380_n4702.t0 a_n66_n5074.t3 a_284_n4702.t0 VSSD.t563 sky130_fd_pr__special_nfet_01v8 ad=0.1401 pd=1.1 as=0.0594 ps=0.69 w=0.36 l=0.15
X105 a_9302_n1573.t0 a_8583_n1331.t3 a_8739_n1599.t1 VSSD.t393 sky130_fd_pr__special_nfet_01v8 ad=0.066 pd=0.745 as=0.0594 ps=0.69 w=0.36 l=0.15
X106 SWN[5].t1 a_1627_n9724.t3 VSSD.t958 VSSD.t585 sky130_fd_pr__nfet_01v8 ad=0.08775 pd=0.92 as=0.2087 ps=2.02 w=0.65 l=0.15
X107 a_644_3557.t2 auto_sampling_0.x7.Q.t4 VSSD.t583 VSSD.t582 sky130_fd_pr__nfet_01v8 ad=0.066 pd=0.745 as=0.2205 ps=1.89 w=0.42 l=0.15
X108 VSSD.t448 CF[5].t4 a_371_n10022.t0 VSSD.t447 sky130_fd_pr__nfet_01v8 ad=0.0567 pd=0.69 as=0.1092 ps=1.36 w=0.42 l=0.15
X109 VSSD.t1115 CKO.t4 a_3632_n5074.t0 VSSD.t1114 sky130_fd_pr__nfet_01v8 ad=0.0567 pd=0.69 as=0.1092 ps=1.36 w=0.42 l=0.15
X110 a_4888_n4776.t0 EN.t5 VDDD.t176 VDDD.t175 sky130_fd_pr__pfet_01v8_hvt ad=0.0567 pd=0.69 as=0.0819 ps=0.81 w=0.42 l=0.15
X111 SWP[7].t1 a_5491_n9510.t3 VSSD.t565 VSSD.t564 sky130_fd_pr__nfet_01v8 ad=0.08775 pd=0.92 as=0.2087 ps=2.02 w=0.65 l=0.15
X112 VDDD.t609 a_1304_3557.t4 a_1479_3531.t1 VDDD.t608 sky130_fd_pr__pfet_01v8_hvt ad=0.1134 pd=1.38 as=0.0567 ps=0.69 w=0.42 l=0.15
X113 a_4603_3557.t1 a_4087_3557.t2 a_4508_3557.t0 VSSD.t675 sky130_fd_pr__special_nfet_01v8 ad=0.0594 pd=0.69 as=0.066 ps=0.745 w=0.36 l=0.15
X114 a_n8208_n9650.t0 a_n9123_n10022.t2 a_n8555_n10054.t1 VSSD.t787 sky130_fd_pr__special_nfet_01v8 ad=0.0711 pd=0.755 as=0.0999 ps=0.985 w=0.36 l=0.15
X115 a_2787_n1331.t1 CLK.t2 VDDD.t826 VDDD.t825 sky130_fd_pr__pfet_01v8_hvt ad=0.1664 pd=1.8 as=0.0864 ps=0.91 w=0.64 l=0.15
X116 VDDD.t575 a_5343_3531.t3 a_5330_3923.t1 VDDD.t574 sky130_fd_pr__pfet_01v8_hvt ad=0.0819 pd=0.81 as=0.0567 ps=0.69 w=0.42 l=0.15
X117 a_n7191_n10022.t0 a_n7357_n10022.t3 VSSD.t522 VSSD.t521 sky130_fd_pr__nfet_01v8 ad=0.1092 pd=1.36 as=0.0567 ps=0.69 w=0.42 l=0.15
X118 a_n4169_n9724.t2 CLKS.t26 VDDD.t514 VDDD.t513 sky130_fd_pr__pfet_01v8_hvt ad=0.0567 pd=0.69 as=0.0819 ps=0.81 w=0.42 l=0.15
X119 VDDD.t828 CLK.t3 a_4055_n1029.t1 VDDD.t827 sky130_fd_pr__pfet_01v8_hvt ad=0.0864 pd=0.91 as=0.1664 ps=1.8 w=0.64 l=0.15
X120 VSSD.t136 a_n8033_n9510.t3 a_n8099_n9484.t1 VSSD.t7 sky130_fd_pr__nfet_01v8 ad=0.12495 pd=1.015 as=0.0669 ps=0.75 w=0.42 l=0.15
X121 cdac_ctrl_0.x1.X.t7 a_n10393_n9484.t6 VSSD.t192 VSSD.t191 sky130_fd_pr__nfet_01v8 ad=0.08775 pd=0.92 as=0.08775 ps=0.92 w=0.65 l=0.15
X122 a_5730_n5074.t0 a_5564_n5074.t3 VSSD.t492 VSSD.t491 sky130_fd_pr__nfet_01v8 ad=0.1092 pd=1.36 as=0.0567 ps=0.69 w=0.42 l=0.15
X123 a_n2237_n9724.t0 a_n2412_n9650.t4 a_n2058_n9662.t0 VSSD.t380 sky130_fd_pr__nfet_01v8 ad=0.1092 pd=1.36 as=0.06405 ps=0.725 w=0.42 l=0.15
X124 a_n2250_n10028.t1 a_n3327_n10022.t2 a_n2412_n9650.t1 VDDD.t379 sky130_fd_pr__pfet_01v8_hvt ad=0.0567 pd=0.69 as=0.0588 ps=0.7 w=0.42 l=0.15
X125 a_9175_n1055.t1 CLKS.t27 VDDD.t516 VDDD.t515 sky130_fd_pr__pfet_01v8_hvt ad=0.0567 pd=0.69 as=0.0819 ps=0.81 w=0.42 l=0.15
X126 a_8077_n5258.t0 a_7556_n5650.t3 VDDD.t150 VDDD.t149 sky130_fd_pr__pfet_01v8_hvt ad=0.0567 pd=0.69 as=0.0819 ps=0.81 w=0.42 l=0.15
X127 a_2888_2959.t1 a_2670_2717.t4 VSSD.t929 VSSD.t928 sky130_fd_pr__nfet_01v8 ad=0.0999 pd=0.985 as=0.1346 ps=1.15 w=0.64 l=0.15
X128 a_3558_n1029.t1 CLKS.t28 VSSD.t1105 VSSD.t1104 sky130_fd_pr__nfet_01v8 ad=0.06405 pd=0.725 as=0.12495 ps=1.015 w=0.42 l=0.15
X129 a_1272_n1029.t0 a_191_n1029.t2 a_925_n787.t0 VDDD.t25 sky130_fd_pr__pfet_01v8_hvt ad=0.0588 pd=0.7 as=0.12915 ps=1.185 w=0.42 l=0.15
X130 auto_sampling_0.x15.D.t3 a_3410_2691.t3 VDDD.t1030 VDDD.t1029 sky130_fd_pr__pfet_01v8_hvt ad=0.135 pd=1.27 as=0.3012 ps=2.66 w=1 l=0.15
X131 a_n628_3557.t3 a_n1709_3557.t3 a_n975_3799.t1 VDDD.t589 sky130_fd_pr__pfet_01v8_hvt ad=0.0588 pd=0.7 as=0.12915 ps=1.185 w=0.42 l=0.15
X132 a_9031_2717.t3 a_8116_2717.t2 a_8684_2959.t3 VSSD.t337 sky130_fd_pr__special_nfet_01v8 ad=0.0711 pd=0.755 as=0.0999 ps=0.985 w=0.36 l=0.15
X133 a_9355_n9510.t0 a_9180_n9484.t4 a_9534_n9484.t0 VSSD.t519 sky130_fd_pr__nfet_01v8 ad=0.1092 pd=1.36 as=0.06405 ps=0.725 w=0.42 l=0.15
X134 SWP[7].t3 a_5491_n9510.t4 VDDD.t700 VDDD.t699 sky130_fd_pr__pfet_01v8_hvt ad=0.135 pd=1.27 as=0.3012 ps=2.66 w=1 l=0.15
X135 a_5316_n9650.t1 a_4235_n10022.t3 a_4969_n10054.t0 VDDD.t497 sky130_fd_pr__pfet_01v8_hvt ad=0.0588 pd=0.7 as=0.12915 ps=1.185 w=0.42 l=0.15
X136 a_5491_n9510.t2 CLKS.t29 VDDD.t1269 VDDD.t1268 sky130_fd_pr__pfet_01v8_hvt ad=0.0567 pd=0.69 as=0.0819 ps=0.81 w=0.42 l=0.15
X137 cdac_ctrl_0.x1.X.t15 a_n10393_n9484.t7 VDDD.t212 VDDD.t211 sky130_fd_pr__pfet_01v8_hvt ad=0.135 pd=1.27 as=0.135 ps=1.27 w=1 l=0.15
X138 a_6753_3799.t3 a_6535_3557.t4 VDDD.t683 VDDD.t682 sky130_fd_pr__pfet_01v8_hvt ad=0.12915 pd=1.185 as=0.2184 ps=2.2 w=0.84 l=0.15
X139 a_7357_n9650.t1 a_6167_n10022.t2 a_7248_n9650.t1 VSSD.t200 sky130_fd_pr__special_nfet_01v8 ad=0.0669 pd=0.75 as=0.0711 ps=0.755 w=0.36 l=0.15
X140 SWN[9].t3 a_9355_n9724.t3 VDDD.t118 VDDD.t117 sky130_fd_pr__pfet_01v8_hvt ad=0.135 pd=1.27 as=0.3012 ps=2.66 w=1 l=0.15
X141 a_1479_3531.t2 a_1304_3557.t5 a_1658_3557.t1 VSSD.t504 sky130_fd_pr__nfet_01v8 ad=0.1092 pd=1.36 as=0.06405 ps=0.725 w=0.42 l=0.15
X142 a_8833_n10054.t3 a_8615_n9650.t4 VDDD.t1108 VDDD.t1107 sky130_fd_pr__pfet_01v8_hvt ad=0.12915 pd=1.185 as=0.2184 ps=2.2 w=0.84 l=0.15
X143 a_2943_n1599.t1 a_2787_n1331.t2 a_3088_n1573.t0 VDDD.t362 sky130_fd_pr__pfet_01v8_hvt ad=0.07245 pd=0.765 as=0.1155 ps=0.97 w=0.42 l=0.15
X144 a_n6623_n10054.t0 a_n6841_n9650.t4 VSSD.t984 VSSD.t404 sky130_fd_pr__nfet_01v8 ad=0.0999 pd=0.985 as=0.1346 ps=1.15 w=0.64 l=0.15
X145 VDDD.t178 EN.t6 a_5624_n5650.t0 VDDD.t177 sky130_fd_pr__pfet_01v8_hvt ad=0.0819 pd=0.81 as=0.0567 ps=0.69 w=0.42 l=0.15
X146 a_9207_3531.t0 EN.t7 VDDD.t180 VDDD.t179 sky130_fd_pr__pfet_01v8_hvt ad=0.0567 pd=0.69 as=0.0819 ps=0.81 w=0.42 l=0.15
X147 DOUT[5].t2 a_4888_n4776.t4 VDDD.t1244 VDDD.t1243 sky130_fd_pr__pfet_01v8_hvt ad=0.135 pd=1.27 as=0.3012 ps=2.66 w=1 l=0.15
X148 a_4677_n1207.t1 a_4115_n1599.t3 VSSD.t966 VSSD.t965 sky130_fd_pr__nfet_01v8 ad=0.0669 pd=0.75 as=0.12495 ps=1.015 w=0.42 l=0.15
X149 a_772_n1573.t1 a_251_n1599.t3 VDDD.t1143 VDDD.t1142 sky130_fd_pr__pfet_01v8_hvt ad=0.0567 pd=0.69 as=0.0819 ps=0.81 w=0.42 l=0.15
X150 VDDD.t1271 CLKS.t30 a_3088_n1573.t2 VDDD.t1270 sky130_fd_pr__pfet_01v8_hvt ad=0.07035 pd=0.755 as=0.1092 ps=1.36 w=0.42 l=0.15
X151 a_1614_n9118.t0 a_537_n9484.t2 a_1452_n9484.t2 VDDD.t740 sky130_fd_pr__pfet_01v8_hvt ad=0.0567 pd=0.69 as=0.0588 ps=0.7 w=0.42 l=0.15
X152 a_4402_n1441.t3 a_4719_n1331.t2 a_4677_n1207.t0 VSSD.t972 sky130_fd_pr__special_nfet_01v8 ad=0.0711 pd=0.755 as=0.0669 ps=0.75 w=0.36 l=0.15
X153 VDDD.t534 CF[5].t5 a_9302_n1573.t3 VDDD.t533 sky130_fd_pr__pfet_01v8_hvt ad=0.1092 pd=1.36 as=0.0651 ps=0.73 w=0.42 l=0.15
X154 VDDD.t1399 a_n454_2691.t4 a_n467_3083.t0 VDDD.t1398 sky130_fd_pr__pfet_01v8_hvt ad=0.0819 pd=0.81 as=0.0567 ps=0.69 w=0.42 l=0.15
X155 VSSD.t636 a_n172_n5650.t4 DOUT[0].t1 VSSD.t635 sky130_fd_pr__nfet_01v8 ad=0.2087 pd=2.02 as=0.08775 ps=0.92 w=0.65 l=0.15
X156 VDDD.t33 a_3559_n9510.t3 a_3546_n9118.t1 VDDD.t32 sky130_fd_pr__pfet_01v8_hvt ad=0.0819 pd=0.81 as=0.0567 ps=0.69 w=0.42 l=0.15
X157 a_n8773_n9484.t0 a_n9289_n9484.t2 a_n8868_n9484.t0 VSSD.t116 sky130_fd_pr__special_nfet_01v8 ad=0.0594 pd=0.69 as=0.066 ps=0.745 w=0.36 l=0.15
X158 a_1574_n1573.t3 a_855_n1331.t3 a_1011_n1599.t3 VSSD.t497 sky130_fd_pr__special_nfet_01v8 ad=0.066 pd=0.745 as=0.0594 ps=0.69 w=0.36 l=0.15
X159 VDDD.t942 a_8752_n4776.t3 a_8739_n5080.t0 VDDD.t941 sky130_fd_pr__pfet_01v8_hvt ad=0.0819 pd=0.81 as=0.0567 ps=0.69 w=0.42 l=0.15
X160 CF[8].t3 a_3379_n1055.t5 VSSD.t1139 VSSD.t1138 sky130_fd_pr__nfet_01v8 ad=0.08775 pd=0.92 as=0.2087 ps=2.02 w=0.65 l=0.15
X161 a_n8099_n9650.t0 a_n9289_n10022.t2 a_n8208_n9650.t3 VSSD.t630 sky130_fd_pr__special_nfet_01v8 ad=0.0669 pd=0.75 as=0.0711 ps=0.755 w=0.36 l=0.15
X162 a_6721_n787.t0 a_6503_n1029.t4 VSSD.t40 VSSD.t39 sky130_fd_pr__nfet_01v8 ad=0.0999 pd=0.985 as=0.1346 ps=1.15 w=0.64 l=0.15
X163 VDDD.t1338 a_1105_n9242.t4 a_995_n9118.t2 VDDD.t1337 sky130_fd_pr__pfet_01v8_hvt ad=0.07035 pd=0.755 as=0.1155 ps=0.97 w=0.42 l=0.15
X164 VSSD.t165 EN.t8 a_546_n4714.t0 VSSD.t164 sky130_fd_pr__nfet_01v8 ad=0.1346 pd=1.15 as=0.0441 ps=0.63 w=0.42 l=0.15
X165 VDDD.t1232 a_9175_n1055.t4 a_9162_n663.t0 VDDD.t1231 sky130_fd_pr__pfet_01v8_hvt ad=0.0819 pd=0.81 as=0.0567 ps=0.69 w=0.42 l=0.15
X166 a_1321_n1207.t1 a_942_n1573.t4 a_1249_n1207.t0 VSSD.t712 sky130_fd_pr__nfet_01v8 ad=0.1401 pd=1.1 as=0.0441 ps=0.63 w=0.42 l=0.15
X167 VDDD.t1057 a_6298_n5106.t4 a_6188_n5080.t2 VDDD.t1056 sky130_fd_pr__pfet_01v8_hvt ad=0.07035 pd=0.755 as=0.1155 ps=0.97 w=0.42 l=0.15
X168 VSSD.t752 a_8752_n4776.t4 DOUT[9].t1 VSSD.t751 sky130_fd_pr__nfet_01v8 ad=0.169 pd=1.82 as=0.08775 ps=0.92 w=0.65 l=0.15
X169 VSSD.t1 CF[4].t5 a_7370_n1573.t1 VSSD.t0 sky130_fd_pr__nfet_01v8 ad=0.2205 pd=1.89 as=0.066 ps=0.745 w=0.42 l=0.15
X170 a_n2759_n9242.t2 a_n2977_n9484.t4 VSSD.t63 VSSD.t34 sky130_fd_pr__nfet_01v8 ad=0.0999 pd=0.985 as=0.1346 ps=1.15 w=0.64 l=0.15
X171 SWP[1].t1 a_n6101_n9510.t3 VSSD.t348 VSSD.t288 sky130_fd_pr__nfet_01v8 ad=0.08775 pd=0.92 as=0.2087 ps=2.02 w=0.65 l=0.15
X172 VDDD.t1379 a_n6623_n9242.t4 a_n6733_n9118.t2 VDDD.t1378 sky130_fd_pr__pfet_01v8_hvt ad=0.07035 pd=0.755 as=0.1155 ps=0.97 w=0.42 l=0.15
X173 a_2665_n5258.t1 a_2451_n5258.t5 VDDD.t47 VDDD.t46 sky130_fd_pr__pfet_01v8_hvt ad=0.1155 pd=0.97 as=0.07035 ps=0.755 w=0.42 l=0.15
X174 a_5670_n9662.t1 CLKS.t31 VSSD.t1103 VSSD.t1039 sky130_fd_pr__nfet_01v8 ad=0.06405 pd=0.725 as=0.12495 ps=1.015 w=0.42 l=0.15
X175 a_1203_n4714.t1 EN.t9 VSSD.t167 VSSD.t166 sky130_fd_pr__nfet_01v8 ad=0.06405 pd=0.725 as=0.12495 ps=1.015 w=0.42 l=0.15
X176 a_8723_n10028.t0 a_8099_n10022.t3 a_8615_n9650.t0 VDDD.t947 sky130_fd_pr__pfet_01v8_hvt ad=0.1155 pd=0.97 as=0.07245 ps=0.765 w=0.42 l=0.15
X177 VSSD.t101 a_7275_3531.t3 auto_sampling_0.x11.D.t1 VSSD.t100 sky130_fd_pr__nfet_01v8 ad=0.169 pd=1.82 as=0.08775 ps=0.92 w=0.65 l=0.15
X178 VDDD.t398 a_n4169_n9510.t3 a_n4182_n9118.t1 VDDD.t397 sky130_fd_pr__pfet_01v8_hvt ad=0.0819 pd=0.81 as=0.0567 ps=0.69 w=0.42 l=0.15
X179 a_3379_n1055.t2 CLKS.t32 VDDD.t1273 VDDD.t1272 sky130_fd_pr__pfet_01v8_hvt ad=0.0567 pd=0.69 as=0.0819 ps=0.81 w=0.42 l=0.15
X180 VSSD.t230 CF[7].t4 a_4235_n9484.t0 VSSD.t229 sky130_fd_pr__nfet_01v8 ad=0.0567 pd=0.69 as=0.1092 ps=1.36 w=0.42 l=0.15
X181 VSSD.t144 a_7556_n5650.t4 DOUT[8].t1 VSSD.t143 sky130_fd_pr__nfet_01v8 ad=0.2087 pd=2.02 as=0.08775 ps=0.92 w=0.65 l=0.15
X182 a_3546_n10028.t1 a_2469_n10022.t2 a_3384_n9650.t3 VDDD.t735 sky130_fd_pr__pfet_01v8_hvt ad=0.0567 pd=0.69 as=0.0588 ps=0.7 w=0.42 l=0.15
X183 VSSD.t892 a_n453_3531.t3 auto_sampling_0.x7.Q.t0 VSSD.t891 sky130_fd_pr__nfet_01v8 ad=0.169 pd=1.82 as=0.08775 ps=0.92 w=0.65 l=0.15
X184 VDDD.t316 a_n6101_n9724.t4 a_n6114_n10028.t1 VDDD.t315 sky130_fd_pr__pfet_01v8_hvt ad=0.0819 pd=0.81 as=0.0567 ps=0.69 w=0.42 l=0.15
X185 a_n2412_n9650.t2 a_n3493_n10022.t2 a_n2759_n10054.t2 VDDD.t590 sky130_fd_pr__pfet_01v8_hvt ad=0.0588 pd=0.7 as=0.12915 ps=1.185 w=0.42 l=0.15
X186 CLKS.t6 auto_sampling_0.x24.A.t10 VSSD.t213 VSSD.t212 sky130_fd_pr__nfet_01v8 ad=0.08775 pd=0.92 as=0.08775 ps=0.92 w=0.65 l=0.15
X187 a_n1085_3923.t0 EN.t10 VDDD.t182 VDDD.t181 sky130_fd_pr__pfet_01v8_hvt ad=0.1092 pd=1.36 as=0.07035 ps=0.755 w=0.42 l=0.15
X188 VDDD.t441 a_8583_n1331.t4 a_8544_n1457.t1 VDDD.t440 sky130_fd_pr__pfet_01v8_hvt ad=0.0864 pd=0.91 as=0.1664 ps=1.8 w=0.64 l=0.15
X189 a_n305_n9510.t1 a_n480_n9484.t5 a_n126_n9484.t0 VSSD.t273 sky130_fd_pr__nfet_01v8 ad=0.1092 pd=1.36 as=0.06405 ps=0.725 w=0.42 l=0.15
X190 a_6333_n9484.t1 a_6167_n9484.t2 VSSD.t997 VSSD.t202 sky130_fd_pr__nfet_01v8 ad=0.1092 pd=1.36 as=0.0567 ps=0.69 w=0.42 l=0.15
X191 a_1627_n9724.t2 CLKS.t33 VDDD.t1275 VDDD.t1274 sky130_fd_pr__pfet_01v8_hvt ad=0.0567 pd=0.69 as=0.0819 ps=0.81 w=0.42 l=0.15
X192 VSSD.t869 a_1024_n4776.t4 a_958_n4702.t0 VSSD.t868 sky130_fd_pr__nfet_01v8 ad=0.12495 pd=1.015 as=0.0669 ps=0.75 w=0.42 l=0.15
X193 a_7243_n1055.t1 a_7068_n1029.t5 a_7422_n1029.t0 VSSD.t833 sky130_fd_pr__nfet_01v8 ad=0.1092 pd=1.36 as=0.06405 ps=0.725 w=0.42 l=0.15
X194 a_3235_2717.t0 a_2320_2717.t3 a_2888_2959.t0 VSSD.t362 sky130_fd_pr__special_nfet_01v8 ad=0.0711 pd=0.755 as=0.0999 ps=0.985 w=0.36 l=0.15
X195 a_1627_n9510.t2 a_1452_n9484.t4 a_1806_n9484.t1 VSSD.t68 sky130_fd_pr__nfet_01v8 ad=0.1092 pd=1.36 as=0.06405 ps=0.725 w=0.42 l=0.15
X196 SWP[1].t3 a_n6101_n9510.t4 VDDD.t862 VDDD.t861 sky130_fd_pr__pfet_01v8_hvt ad=0.135 pd=1.27 as=0.3012 ps=2.66 w=1 l=0.15
X197 a_7248_n9650.t3 a_6333_n10022.t2 a_6901_n10054.t1 VSSD.t744 sky130_fd_pr__special_nfet_01v8 ad=0.0711 pd=0.755 as=0.0999 ps=0.985 w=0.36 l=0.15
X198 a_7230_n663.t1 a_6153_n1029.t2 a_7068_n1029.t2 VDDD.t664 sky130_fd_pr__pfet_01v8_hvt ad=0.0567 pd=0.69 as=0.0588 ps=0.7 w=0.42 l=0.15
X199 a_792_n9662.t2 cdac_ctrl_0.x2.X.t18 VSSD.t937 VSSD.t899 sky130_fd_pr__nfet_01v8 ad=0.066 pd=0.745 as=0.2205 ps=1.89 w=0.42 l=0.15
X200 a_n3072_n9484.t1 cdac_ctrl_0.x1.X.t16 VSSD.t31 VSSD.t30 sky130_fd_pr__nfet_01v8 ad=0.066 pd=0.745 as=0.2205 ps=1.89 w=0.42 l=0.15
X201 VDDD.t720 a_1760_n5650.t3 DOUT[2].t3 VDDD.t719 sky130_fd_pr__pfet_01v8_hvt ad=0.3012 pd=2.66 as=0.135 ps=1.27 w=1 l=0.15
X202 a_8467_3557.t0 a_7951_3557.t2 a_8372_3557.t0 VSSD.t1005 sky130_fd_pr__special_nfet_01v8 ad=0.0594 pd=0.69 as=0.066 ps=0.745 w=0.36 l=0.15
X203 VDDD.t526 a_9207_3531.t3 a_9194_3923.t0 VDDD.t525 sky130_fd_pr__pfet_01v8_hvt ad=0.0819 pd=0.81 as=0.0567 ps=0.69 w=0.42 l=0.15
X204 a_3181_n1207.t1 CLKS.t34 VSSD.t1102 VSSD.t1101 sky130_fd_pr__nfet_01v8 ad=0.0441 pd=0.63 as=0.1346 ps=1.15 w=0.42 l=0.15
X205 SWN[6].t1 a_3559_n9724.t3 VSSD.t620 VSSD.t41 sky130_fd_pr__nfet_01v8 ad=0.08775 pd=0.92 as=0.2087 ps=2.02 w=0.65 l=0.15
X206 VSSD.t194 a_n10393_n9484.t8 cdac_ctrl_0.x1.X.t6 VSSD.t193 sky130_fd_pr__nfet_01v8 ad=0.08775 pd=0.92 as=0.08775 ps=0.92 w=0.65 l=0.15
X207 a_2451_n5258.t3 a_2325_n5356.t2 a_2047_n5372.t0 VSSD.t1178 sky130_fd_pr__special_nfet_01v8 ad=0.0999 pd=0.985 as=0.0711 ps=0.755 w=0.36 l=0.15
X208 VSSD.t1117 CKO.t5 a_5564_n5074.t0 VSSD.t1116 sky130_fd_pr__nfet_01v8 ad=0.0567 pd=0.69 as=0.1092 ps=1.36 w=0.42 l=0.15
X209 VSSD.t789 a_2183_n1599.t3 CF[1].t1 VSSD.t788 sky130_fd_pr__nfet_01v8 ad=0.2087 pd=2.02 as=0.08775 ps=0.92 w=0.65 l=0.15
X210 VDDD.t1137 a_n6276_n9650.t4 a_n6101_n9724.t1 VDDD.t1136 sky130_fd_pr__pfet_01v8_hvt ad=0.1134 pd=1.38 as=0.0567 ps=0.69 w=0.42 l=0.15
X211 a_2451_n5258.t1 a_2364_n5482.t3 a_2047_n5372.t2 VDDD.t629 sky130_fd_pr__pfet_01v8_hvt ad=0.12915 pd=1.185 as=0.0588 ps=0.7 w=0.42 l=0.15
X212 a_733_n5258.t2 a_519_n5258.t4 VDDD.t994 VDDD.t993 sky130_fd_pr__pfet_01v8_hvt ad=0.1155 pd=0.97 as=0.07035 ps=0.755 w=0.42 l=0.15
X213 a_6080_n4702.t0 a_5564_n5074.t4 a_5985_n4714.t0 VSSD.t604 sky130_fd_pr__special_nfet_01v8 ad=0.0594 pd=0.69 as=0.066 ps=0.745 w=0.36 l=0.15
X214 a_8711_n9650.t1 a_8265_n10022.t2 a_8615_n9650.t2 VSSD.t69 sky130_fd_pr__special_nfet_01v8 ad=0.1401 pd=1.1 as=0.0594 ps=0.69 w=0.36 l=0.15
X215 a_n454_2691.t0 EN.t11 VDDD.t304 VDDD.t303 sky130_fd_pr__pfet_01v8_hvt ad=0.0567 pd=0.69 as=0.0819 ps=0.81 w=0.42 l=0.15
X216 a_n5004_n9662.t3 cdac_ctrl_0.x2.X.t19 VDDD.t1186 VDDD.t1185 sky130_fd_pr__pfet_01v8_hvt ad=0.0651 pd=0.73 as=0.1092 ps=1.36 w=0.42 l=0.15
X217 a_n3327_n10022.t1 a_n3493_n10022.t3 VDDD.t592 VDDD.t591 sky130_fd_pr__pfet_01v8_hvt ad=0.1664 pd=1.8 as=0.0864 ps=0.91 w=0.64 l=0.15
X218 VDDD.t142 a_1105_n10054.t4 a_995_n10028.t0 VDDD.t141 sky130_fd_pr__pfet_01v8_hvt ad=0.07035 pd=0.755 as=0.1155 ps=0.97 w=0.42 l=0.15