* PEX produced on Rab 06 Nov 2024 10:28:37  CST using ./iic-pex.sh with m=3 and s=1
* NGSPICE file created from sar.ext - technology: sky130A

.subckt sar CF[0] CF[1] CF[2] CF[3] CF[4] CF[5] CF[6] CF[7] CF[8] CF[9] CKO CLK CLKS
+ CLKSB COMP_N COMP_P DOUT[0] DOUT[1] DOUT[2] DOUT[3] DOUT[4] DOUT[5] DOUT[6] DOUT[7]
+ DOUT[8] DOUT[9] EN SWN[0] SWN[1] SWN[2] SWN[3] SWN[4] SWN[5] SWN[6] SWN[7] SWN[8]
+ SWN[9] SWP[0] SWP[1] SWP[2] SWP[3] SWP[4] SWP[5] SWP[6] SWP[7] SWP[8] SWP[9] VDDD
+ VSSD
X0 a_1835_9813.t1 a_2122_10091.t4 VDDD.t1358 VDDD.t1357 sky130_fd_pr__pfet_01v8_hvt ad=0.0567 pd=0.69 as=0.1134 ps=1.38 w=0.42 l=0.15
X1 VSSD.t722 a_4739_10625.t2 a_4700_10499.t1 VSSD.t721 sky130_fd_pr__nfet_01v8 ad=0.0567 pd=0.69 as=0.1092 ps=1.36 w=0.42 l=0.15
X2 VDDD.t1179 a_6077_9813.t8 clknet_1_1__leaf_CLK.t15 VDDD.t1178 sky130_fd_pr__pfet_01v8_hvt ad=0.14 pd=1.28 as=0.14 ps=1.28 w=1 l=0.15
X3 VSSD.t914 a_5515_4159.t3 a_5449_4233.t1 VSSD.t913 sky130_fd_pr__nfet_01v8 ad=0.12495 pd=1.015 as=0.0669 ps=0.75 w=0.42 l=0.15
X4 VDDD.t477 VSSD.t1852 VDDD.t476 VDDD.t475 sky130_fd_pr__pfet_01v8_hvt ad=0.2262 pd=2.26 as=0 ps=0 w=0.87 l=4.73
X5 a_10373_5487.t0 a_10329_5729.t4 a_10207_5487.t0 VSSD.t452 sky130_fd_pr__nfet_01v8 ad=0.0441 pd=0.63 as=0.1401 ps=1.1 w=0.42 l=0.15
X6 a_5515_4159.t1 CLKS.t16 VDDD.t284 VDDD.t283 sky130_fd_pr__pfet_01v8_hvt ad=0.0567 pd=0.69 as=0.0819 ps=0.81 w=0.42 l=0.15
X7 VSSD.t1568 VDDD.t1979 VSSD.t1567 VSSD.t1566 sky130_fd_pr__nfet_01v8 ad=0.143 pd=1.62 as=0 ps=0 w=0.55 l=0.59
X8 a_4463_8893.t1 CF[0].t4 VSSD.t1584 VSSD.t1583 sky130_fd_pr__nfet_01v8 ad=0.1092 pd=1.36 as=0.0567 ps=0.69 w=0.42 l=0.15
X9 VDDD.t14 a_10667_9813.t3 a_10654_10205.t1 VDDD.t13 sky130_fd_pr__pfet_01v8_hvt ad=0.0819 pd=0.81 as=0.0567 ps=0.69 w=0.42 l=0.15
X10 a_4425_3861.t0 a_4259_3861.t2 VDDD.t826 VDDD.t825 sky130_fd_pr__pfet_01v8_hvt ad=0.1664 pd=1.8 as=0.0864 ps=0.91 w=0.64 l=0.15
X11 a_3210_10927.t1 EN.t0 VSSD.t880 VSSD.t879 sky130_fd_pr__nfet_01v8 ad=0.06405 pd=0.725 as=0.12495 ps=1.015 w=0.42 l=0.15
X12 a_5037_4221.t1 a_4993_3829.t4 a_4871_4233.t0 VSSD.t1105 sky130_fd_pr__nfet_01v8 ad=0.0441 pd=0.63 as=0.1401 ps=1.1 w=0.42 l=0.15
X13 VDDD.t634 a_8008_10927.t4 a_8183_10901.t1 VDDD.t633 sky130_fd_pr__pfet_01v8_hvt ad=0.1134 pd=1.38 as=0.0567 ps=0.69 w=0.42 l=0.15
X14 VDDD.t1497 CLK.t0 a_6813_7093.t3 VDDD.t1496 sky130_fd_pr__pfet_01v8_hvt ad=0.14 pd=1.28 as=0.14 ps=1.28 w=1 l=0.15
X15 VSSD.t1565 VDDD.t1980 VSSD.t1564 VSSD.t1563 sky130_fd_pr__nfet_01v8 ad=0.143 pd=1.62 as=0 ps=0 w=0.55 l=4.73
X16 a_2710_6031.t3 a_2584_6147.t2 a_2306_6163.t3 VSSD.t775 sky130_fd_pr__special_nfet_01v8 ad=0.0999 pd=0.985 as=0.0711 ps=0.755 w=0.36 l=0.15
X17 a_7321_6575.t0 a_6942_6941.t4 a_7249_6575.t0 VSSD.t499 sky130_fd_pr__nfet_01v8 ad=0.1401 pd=1.1 as=0.0441 ps=0.63 w=0.42 l=0.15
X18 CF[6].t1 a_10667_5247.t3 VDDD.t1343 VDDD.t1342 sky130_fd_pr__pfet_01v8_hvt ad=0.135 pd=1.27 as=0.3012 ps=2.66 w=1 l=0.15
X19 VSSD.t95 clknet_1_1__leaf_CLK.t32 a_8951_10927.t1 VSSD.t94 sky130_fd_pr__nfet_01v8 ad=0.0567 pd=0.69 as=0.1092 ps=1.36 w=0.42 l=0.15
X20 VSSD.t705 a_2411_4917.t4 a_2342_4943.t2 VSSD.t704 sky130_fd_pr__nfet_01v8 ad=0.1346 pd=1.15 as=0.0999 ps=0.985 w=0.64 l=0.15
X21 a_7331_9269.t5 COMP_N.t0 VSSD.t421 VSSD.t420 sky130_fd_pr__nfet_01v8 ad=0.08775 pd=0.92 as=0.08775 ps=0.92 w=0.65 l=0.15
X22 a_4619_4636.t0 a_4424_4667.t2 a_4929_4399.t0 VSSD.t706 sky130_fd_pr__special_nfet_01v8 ad=0.0594 pd=0.69 as=0.1401 ps=1.1 w=0.36 l=0.15
X23 a_5015_3009.t0 CF[4].t4 VDDD.t798 VDDD.t797 sky130_fd_pr__pfet_01v8_hvt ad=0.1664 pd=1.8 as=0.0864 ps=0.91 w=0.64 l=0.15
X24 VDDD.t1187 a_4463_4541.t2 a_4424_4667.t0 VDDD.t1186 sky130_fd_pr__pfet_01v8_hvt ad=0.0864 pd=0.91 as=0.1664 ps=1.8 w=0.64 l=0.15
X25 VDDD.t562 a_10207_10901.t3 a_10194_11293.t0 VDDD.t561 sky130_fd_pr__pfet_01v8_hvt ad=0.0819 pd=0.81 as=0.0567 ps=0.69 w=0.42 l=0.15
X26 a_6251_6549.t2 a_6538_6827.t4 VDDD.t655 VDDD.t654 sky130_fd_pr__pfet_01v8_hvt ad=0.0567 pd=0.69 as=0.1134 ps=1.38 w=0.42 l=0.15
X27 a_4146_6827.t1 a_4424_6843.t2 a_4380_6941.t0 VDDD.t843 sky130_fd_pr__pfet_01v8_hvt ad=0.0588 pd=0.7 as=0.0567 ps=0.69 w=0.42 l=0.15
X28 a_2905_4399.t0 a_2526_4765.t4 a_2833_4399.t0 VSSD.t935 sky130_fd_pr__nfet_01v8 ad=0.1401 pd=1.1 as=0.0441 ps=0.63 w=0.42 l=0.15
X29 a_2623_6273.t1 CF[8].t4 VSSD.t1637 VSSD.t1636 sky130_fd_pr__nfet_01v8 ad=0.1092 pd=1.36 as=0.0567 ps=0.69 w=0.42 l=0.15
X30 VSSD.t568 a_3031_10901.t3 a_2965_10927.t1 VSSD.t567 sky130_fd_pr__nfet_01v8 ad=0.12495 pd=1.015 as=0.0669 ps=0.75 w=0.42 l=0.15
X31 a_6541_8213.t1 a_6375_8213.t2 VSSD.t698 VSSD.t697 sky130_fd_pr__nfet_01v8 ad=0.1092 pd=1.36 as=0.0567 ps=0.69 w=0.42 l=0.15
X32 VDDD.t956 a_10943_6549.t3 CF[9].t1 VDDD.t955 sky130_fd_pr__pfet_01v8_hvt ad=0.26 pd=2.52 as=0.135 ps=1.27 w=1 l=0.15
X33 a_2397_4399.t0 a_1835_4373.t3 VSSD.t332 VSSD.t331 sky130_fd_pr__nfet_01v8 ad=0.0669 pd=0.75 as=0.12495 ps=1.015 w=0.42 l=0.15
X34 a_6077_9813.t4 clknet_0_CLK.t32 VSSD.t462 VSSD.t461 sky130_fd_pr__nfet_01v8 ad=0.0588 pd=0.7 as=0.0588 ps=0.7 w=0.42 l=0.15
X35 a_5576_3677.t1 a_5055_3285.t3 VDDD.t1191 VDDD.t1190 sky130_fd_pr__pfet_01v8_hvt ad=0.0567 pd=0.69 as=0.0819 ps=0.81 w=0.42 l=0.15
X36 VDDD.t1469 CF[2].t4 a_6743_4399.t0 VDDD.t1468 sky130_fd_pr__pfet_01v8_hvt ad=0.0864 pd=0.91 as=0.1664 ps=1.8 w=0.64 l=0.15
X37 VSSD.t1562 VDDD.t1981 VSSD.t1561 VSSD.t1479 sky130_fd_pr__nfet_01v8 ad=0.143 pd=1.62 as=0 ps=0 w=0.55 l=0.59
X38 VDDD.t480 VSSD.t1853 VDDD.t479 VDDD.t478 sky130_fd_pr__pfet_01v8_hvt ad=0.2262 pd=2.26 as=0 ps=0 w=0.87 l=4.73
X39 VDDD.t483 VSSD.t1854 VDDD.t482 VDDD.t481 sky130_fd_pr__pfet_01v8_hvt ad=0.2262 pd=2.26 as=0 ps=0 w=0.87 l=2.89
X40 a_5147_11989.t1 a_4972_12015.t4 a_5326_12015.t1 VSSD.t1155 sky130_fd_pr__nfet_01v8 ad=0.1092 pd=1.36 as=0.06405 ps=0.725 w=0.42 l=0.15
X41 a_4146_4651.t0 a_4463_4541.t3 a_4421_4399.t0 VSSD.t831 sky130_fd_pr__special_nfet_01v8 ad=0.0711 pd=0.755 as=0.0669 ps=0.75 w=0.36 l=0.15
X42 SWN[9].t3 a_3583_4917.t3 VSSD.t403 VSSD.t402 sky130_fd_pr__nfet_01v8 ad=0.08775 pd=0.92 as=0.169 ps=1.82 w=0.65 l=0.15
X43 a_8638_4221.t0 CLKS.t17 VSSD.t233 VSSD.t232 sky130_fd_pr__nfet_01v8 ad=0.06405 pd=0.725 as=0.12495 ps=1.015 w=0.42 l=0.15
X44 a_10759_6335.t0 CLKS.t18 VDDD.t286 VDDD.t285 sky130_fd_pr__pfet_01v8_hvt ad=0.0567 pd=0.69 as=0.0819 ps=0.81 w=0.42 l=0.15
X45 a_4527_8181.t0 a_4371_8449.t2 a_4672_8207.t1 VDDD.t1939 sky130_fd_pr__pfet_01v8_hvt ad=0.07245 pd=0.765 as=0.1155 ps=0.97 w=0.42 l=0.15
X46 VSSD.t417 a_10207_10901.t4 x2/net11.t3 VSSD.t416 sky130_fd_pr__nfet_01v8 ad=0.169 pd=1.82 as=0.08775 ps=0.92 w=0.65 l=0.15
X47 VDDD.t486 VSSD.t1855 VDDD.t485 VDDD.t484 sky130_fd_pr__pfet_01v8_hvt ad=0.2262 pd=2.26 as=0 ps=0 w=0.87 l=0.59
X48 VDDD.t489 VSSD.t1856 VDDD.t488 VDDD.t487 sky130_fd_pr__pfet_01v8_hvt ad=0.2262 pd=2.26 as=0 ps=0 w=0.87 l=4.73
X49 VSSD.t53 clknet_1_0__leaf_CLK.t32 a_9595_3311.t1 VSSD.t52 sky130_fd_pr__nfet_01v8 ad=0.0567 pd=0.69 as=0.1092 ps=1.36 w=0.42 l=0.15
X50 a_10203_6575.t1 a_9853_6575.t2 a_10108_6575.t0 VDDD.t1882 sky130_fd_pr__pfet_01v8_hvt ad=0.07245 pd=0.765 as=0.0651 ps=0.73 w=0.42 l=0.15
X51 VDDD.t136 clknet_1_1__leaf_CLK.t33 a_8951_10927.t0 VDDD.t135 sky130_fd_pr__pfet_01v8_hvt ad=0.0864 pd=0.91 as=0.1664 ps=1.8 w=0.64 l=0.15
X52 a_10299_7423.t2 EN.t1 VDDD.t1226 VDDD.t1225 sky130_fd_pr__pfet_01v8_hvt ad=0.0567 pd=0.69 as=0.0819 ps=0.81 w=0.42 l=0.15
X53 a_7494_2767.t2 a_7407_3009.t2 a_7090_2899.t3 VDDD.t553 sky130_fd_pr__pfet_01v8_hvt ad=0.12915 pd=1.185 as=0.0588 ps=0.7 w=0.42 l=0.15
X54 VDDD.t492 VSSD.t1857 VDDD.t491 VDDD.t490 sky130_fd_pr__pfet_01v8_hvt ad=0.2262 pd=2.26 as=0 ps=0 w=0.87 l=0.59
X55 a_10676_3311.t1 a_9761_3311.t2 a_10329_3553.t0 VSSD.t855 sky130_fd_pr__special_nfet_01v8 ad=0.0711 pd=0.755 as=0.0999 ps=0.985 w=0.36 l=0.15
X56 a_9117_7663.t0 a_8951_7663.t2 VDDD.t1700 VDDD.t1699 sky130_fd_pr__pfet_01v8_hvt ad=0.1664 pd=1.8 as=0.0864 ps=0.91 w=0.64 l=0.15
X57 a_3158_10205.t3 a_2400_10107.t2 a_2595_10076.t1 VDDD.t1532 sky130_fd_pr__pfet_01v8_hvt ad=0.0651 pd=0.73 as=0.07245 ps=0.765 w=0.42 l=0.15
X58 a_7824_4399.t2 a_6743_4399.t2 a_7477_4641.t3 VDDD.t1537 sky130_fd_pr__pfet_01v8_hvt ad=0.0588 pd=0.7 as=0.12915 ps=1.185 w=0.42 l=0.15
X59 VSSD.t1560 VDDD.t1982 VSSD.t1559 VSSD.t1558 sky130_fd_pr__nfet_01v8 ad=0.143 pd=1.62 as=0 ps=0 w=0.55 l=4.73
X60 SWP[3].t1 a_8459_4159.t3 VDDD.t246 VDDD.t245 sky130_fd_pr__pfet_01v8_hvt ad=0.135 pd=1.27 as=0.3012 ps=2.66 w=1 l=0.15
X61 VDDD.t288 CLKS.t19 a_3859_8725.t0 VDDD.t287 sky130_fd_pr__pfet_01v8_hvt ad=0.0819 pd=0.81 as=0.0567 ps=0.69 w=0.42 l=0.15
X62 a_8275_6335.t0 CLKS.t20 VDDD.t290 VDDD.t289 sky130_fd_pr__pfet_01v8_hvt ad=0.0567 pd=0.69 as=0.0819 ps=0.81 w=0.42 l=0.15
X63 DOUT[4].t3 a_10207_7637.t3 VSSD.t948 VSSD.t947 sky130_fd_pr__nfet_01v8 ad=0.08775 pd=0.92 as=0.2087 ps=2.02 w=0.65 l=0.15
X64 VSSD.t1557 VDDD.t1983 VSSD.t1556 VSSD.t1555 sky130_fd_pr__nfet_01v8 ad=0.143 pd=1.62 as=0 ps=0 w=0.55 l=4.73
X65 VDDD.t1946 a_5515_4159.t4 a_5502_3855.t1 VDDD.t1945 sky130_fd_pr__pfet_01v8_hvt ad=0.0819 pd=0.81 as=0.0567 ps=0.69 w=0.42 l=0.15
X66 a_10311_6941.t0 a_9687_6575.t2 a_10203_6575.t2 VDDD.t852 sky130_fd_pr__pfet_01v8_hvt ad=0.1155 pd=0.97 as=0.07245 ps=0.765 w=0.42 l=0.15
X67 SWN[4].t3 a_4043_7637.t3 VSSD.t870 VSSD.t869 sky130_fd_pr__nfet_01v8 ad=0.08775 pd=0.92 as=0.169 ps=1.82 w=0.65 l=0.15
X68 a_9577_4949.t0 a_9411_4949.t2 VDDD.t1457 VDDD.t1456 sky130_fd_pr__pfet_01v8_hvt ad=0.1664 pd=1.8 as=0.0864 ps=0.91 w=0.64 l=0.15
X69 a_6855_6717.t0 CF[1].t4 VDDD.t570 VDDD.t569 sky130_fd_pr__pfet_01v8_hvt ad=0.1664 pd=1.8 as=0.0864 ps=0.91 w=0.64 l=0.15
X70 VSSD.t1554 VDDD.t1984 VSSD.t1553 VSSD.t1459 sky130_fd_pr__nfet_01v8 ad=0.143 pd=1.62 as=0 ps=0 w=0.55 l=2.89
X71 VSSD.t820 a_6077_9813.t9 clknet_1_1__leaf_CLK.t31 VSSD.t819 sky130_fd_pr__nfet_01v8 ad=0.0588 pd=0.7 as=0.0588 ps=0.7 w=0.42 l=0.15
X72 VSSD.t846 a_8435_8181.t6 x3/COMP_BUF_P.t15 VSSD.t845 sky130_fd_pr__nfet_01v8 ad=0.08775 pd=0.92 as=0.08775 ps=0.92 w=0.65 l=0.15
X73 VDDD.t754 a_7563_2741.t4 a_7494_2767.t0 VDDD.t753 sky130_fd_pr__pfet_01v8_hvt ad=0.2184 pd=2.2 as=0.12915 ps=1.185 w=0.84 l=0.15
X74 VDDD.t357 a_10032_7663.t4 a_10207_7637.t0 VDDD.t356 sky130_fd_pr__pfet_01v8_hvt ad=0.1134 pd=1.38 as=0.0567 ps=0.69 w=0.42 l=0.15
X75 a_2158_8207.t1 a_2032_8323.t2 a_1754_8339.t2 VSSD.t549 sky130_fd_pr__special_nfet_01v8 ad=0.0999 pd=0.985 as=0.0711 ps=0.755 w=0.36 l=0.15
X76 VDDD.t1976 a_7654_4943.t8 clknet_1_0__leaf_CLK.t29 VDDD.t1975 sky130_fd_pr__pfet_01v8_hvt ad=0.14 pd=1.28 as=0.14 ps=1.28 w=1 l=0.15
X77 a_4421_6575.t0 a_3859_6549.t3 VSSD.t812 VSSD.t811 sky130_fd_pr__nfet_01v8 ad=0.0669 pd=0.75 as=0.12495 ps=1.015 w=0.42 l=0.15
X78 a_6891_8585.t2 a_6541_8213.t2 a_6796_8573.t1 VDDD.t1101 sky130_fd_pr__pfet_01v8_hvt ad=0.07245 pd=0.765 as=0.0651 ps=0.73 w=0.42 l=0.15
X79 a_7125_8751.t0 a_7090_9003.t4 a_6803_8725.t0 VSSD.t463 sky130_fd_pr__nfet_01v8 ad=0.06405 pd=0.725 as=0.1092 ps=1.36 w=0.42 l=0.15
X80 a_2309_10389.t0 a_2143_10389.t2 VDDD.t546 VDDD.t545 sky130_fd_pr__pfet_01v8_hvt ad=0.1664 pd=1.8 as=0.0864 ps=0.91 w=0.64 l=0.15
X81 VDDD.t495 VSSD.t1858 VDDD.t494 VDDD.t493 sky130_fd_pr__pfet_01v8_hvt ad=0.2262 pd=2.26 as=0 ps=0 w=0.87 l=4.73
X82 VDDD.t62 CF[3].t4 a_8126_2767.t0 VDDD.t61 sky130_fd_pr__pfet_01v8_hvt ad=0.1092 pd=1.36 as=0.0651 ps=0.73 w=0.42 l=0.15
X83 a_7348_10927.t1 x2/net3.t4 VSSD.t130 VSSD.t129 sky130_fd_pr__nfet_01v8 ad=0.066 pd=0.745 as=0.2205 ps=1.89 w=0.42 l=0.15
X84 VSSD.t1851 a_7654_4943.t9 clknet_1_0__leaf_CLK.t30 VSSD.t1850 sky130_fd_pr__nfet_01v8 ad=0.0588 pd=0.7 as=0.0588 ps=0.7 w=0.42 l=0.15
X85 VSSD.t1552 VDDD.t1985 VSSD.t1551 VSSD.t1550 sky130_fd_pr__nfet_01v8 ad=0.143 pd=1.62 as=0 ps=0 w=0.55 l=4.73
X86 x2/net9.t1 a_3031_10901.t4 VDDD.t790 VDDD.t789 sky130_fd_pr__pfet_01v8_hvt ad=0.135 pd=1.27 as=0.3012 ps=2.66 w=1 l=0.15
X87 VDDD.t68 a_4411_6005.t3 SWN[2].t1 VDDD.t67 sky130_fd_pr__pfet_01v8_hvt ad=0.3012 pd=2.66 as=0.135 ps=1.27 w=1 l=0.15
X88 VSSD.t1549 VDDD.t1986 VSSD.t1548 VSSD.t1547 sky130_fd_pr__nfet_01v8 ad=0.143 pd=1.62 as=0 ps=0 w=0.55 l=1.05
X89 VDDD.t292 CLKS.t21 a_5055_3285.t2 VDDD.t291 sky130_fd_pr__pfet_01v8_hvt ad=0.0819 pd=0.81 as=0.0567 ps=0.69 w=0.42 l=0.15
X90 a_2965_10927.t0 a_1775_10927.t2 a_2856_10927.t3 VSSD.t430 sky130_fd_pr__special_nfet_01v8 ad=0.0669 pd=0.75 as=0.0711 ps=0.755 w=0.36 l=0.15
X91 a_2840_11837.t1 x2/net9.t4 VDDD.t1177 VDDD.t1176 sky130_fd_pr__pfet_01v8_hvt ad=0.0651 pd=0.73 as=0.1092 ps=1.36 w=0.42 l=0.15
X92 a_4653_5309.t0 a_4274_4943.t4 a_4581_5309.t1 VSSD.t613 sky130_fd_pr__nfet_01v8 ad=0.1401 pd=1.1 as=0.0441 ps=0.63 w=0.42 l=0.15
X93 VDDD.t1705 a_1651_4917.t3 SWP[8].t1 VDDD.t1704 sky130_fd_pr__pfet_01v8_hvt ad=0.3012 pd=2.66 as=0.135 ps=1.27 w=1 l=0.15
X94 VDDD.t1522 CKO.t4 a_6375_8213.t1 VDDD.t1521 sky130_fd_pr__pfet_01v8_hvt ad=0.0864 pd=0.91 as=0.1664 ps=1.8 w=0.64 l=0.15
X95 a_2255_5185.t1 CF[8].t5 VSSD.t1639 VSSD.t1638 sky130_fd_pr__nfet_01v8 ad=0.1092 pd=1.36 as=0.0567 ps=0.69 w=0.42 l=0.15
X96 a_4145_5309.t0 a_3583_4917.t4 VSSD.t405 VSSD.t404 sky130_fd_pr__nfet_01v8 ad=0.0669 pd=0.75 as=0.12495 ps=1.015 w=0.42 l=0.15
X97 VSSD.t1546 VDDD.t1987 VSSD.t1545 VSSD.t1228 sky130_fd_pr__nfet_01v8 ad=0.143 pd=1.62 as=0 ps=0 w=0.55 l=0.59
X98 VDDD.t1272 a_2877_10357.t4 a_2767_10383.t0 VDDD.t1271 sky130_fd_pr__pfet_01v8_hvt ad=0.07035 pd=0.755 as=0.1155 ps=0.97 w=0.42 l=0.15
X99 SWN[7].t1 a_1835_5461.t3 VDDD.t70 VDDD.t69 sky130_fd_pr__pfet_01v8_hvt ad=0.135 pd=1.27 as=0.26 ps=2.52 w=1 l=0.15
X100 VDDD.t498 VSSD.t1859 VDDD.t497 VDDD.t496 sky130_fd_pr__pfet_01v8_hvt ad=0.2262 pd=2.26 as=0 ps=0 w=0.87 l=1.05
X101 a_2029_8573.t1 a_1467_8181.t3 VSSD.t767 VSSD.t675 sky130_fd_pr__nfet_01v8 ad=0.0669 pd=0.75 as=0.12495 ps=1.015 w=0.42 l=0.15
X102 VSSD.t1544 VDDD.t1988 VSSD.t1543 VSSD.t1542 sky130_fd_pr__nfet_01v8 ad=0.143 pd=1.62 as=0 ps=0 w=0.55 l=2.89
X103 CF[1].t3 a_5055_3285.t4 VSSD.t692 VSSD.t691 sky130_fd_pr__nfet_01v8 ad=0.08775 pd=0.92 as=0.169 ps=1.82 w=0.65 l=0.15
X104 a_1789_8751.t0 a_1754_9003.t4 a_1467_8725.t0 VSSD.t1587 sky130_fd_pr__nfet_01v8 ad=0.06405 pd=0.725 as=0.1092 ps=1.36 w=0.42 l=0.15
X105 VDDD.t1545 a_7331_9269.t6 x3/COMP_BUF_N.t7 VDDD.t1544 sky130_fd_pr__pfet_01v8_hvt ad=0.135 pd=1.27 as=0.135 ps=1.27 w=1 l=0.15
X106 VSSD.t1541 VDDD.t1989 VSSD.t1540 VSSD.t1254 sky130_fd_pr__nfet_01v8 ad=0.143 pd=1.62 as=0 ps=0 w=0.55 l=0.59
X107 a_5341_5487.t1 a_4779_5461.t3 VSSD.t836 VSSD.t835 sky130_fd_pr__nfet_01v8 ad=0.0669 pd=0.75 as=0.12495 ps=1.015 w=0.42 l=0.15
X108 VDDD.t1228 EN.t2 a_1467_8725.t2 VDDD.t1227 sky130_fd_pr__pfet_01v8_hvt ad=0.0819 pd=0.81 as=0.0567 ps=0.69 w=0.42 l=0.15
X109 a_4895_10357.t0 a_4739_10625.t3 a_5040_10383.t1 VDDD.t1229 sky130_fd_pr__pfet_01v8_hvt ad=0.07245 pd=0.765 as=0.1155 ps=0.97 w=0.42 l=0.15
X110 clknet_1_0__leaf_CLK.t31 a_7654_4943.t10 VDDD.t1978 VDDD.t1977 sky130_fd_pr__pfet_01v8_hvt ad=0.14 pd=1.28 as=0.1375 ps=1.275 w=1 l=0.15
X111 VSSD.t235 CLKS.t22 a_10281_4221.t1 VSSD.t234 sky130_fd_pr__nfet_01v8 ad=0.1346 pd=1.15 as=0.0441 ps=0.63 w=0.42 l=0.15
X112 VSSD.t134 a_6813_7093.t8 clknet_0_CLK.t31 VSSD.t133 sky130_fd_pr__nfet_01v8 ad=0.0588 pd=0.7 as=0.0588 ps=0.7 w=0.42 l=0.15
X113 a_2840_11837.t2 x2/net9.t5 VSSD.t818 VSSD.t817 sky130_fd_pr__nfet_01v8 ad=0.066 pd=0.745 as=0.2205 ps=1.89 w=0.42 l=0.15
X114 VDDD.t501 VSSD.t1860 VDDD.t500 VDDD.t499 sky130_fd_pr__pfet_01v8_hvt ad=0.2262 pd=2.26 as=0 ps=0 w=0.87 l=0.59
X115 a_6803_2741.t2 a_7090_2899.t4 VDDD.t1303 VDDD.t1302 sky130_fd_pr__pfet_01v8_hvt ad=0.0567 pd=0.69 as=0.1134 ps=1.38 w=0.42 l=0.15
X116 VSSD.t1159 CKO.t5 a_8951_8751.t1 VSSD.t1158 sky130_fd_pr__nfet_01v8 ad=0.0567 pd=0.69 as=0.1092 ps=1.36 w=0.42 l=0.15
X117 a_4515_12381.t2 EN.t3 VDDD.t639 VDDD.t638 sky130_fd_pr__pfet_01v8_hvt ad=0.1092 pd=1.36 as=0.07035 ps=0.755 w=0.42 l=0.15
X118 SWN[2].t3 a_4411_6005.t4 VSSD.t38 VSSD.t37 sky130_fd_pr__nfet_01v8 ad=0.08775 pd=0.92 as=0.169 ps=1.82 w=0.65 l=0.15
X119 FINAL.t15 a_5307_7093.t6 VSSD.t910 VSSD.t909 sky130_fd_pr__nfet_01v8 ad=0.08775 pd=0.92 as=0.08775 ps=0.92 w=0.65 l=0.15
X120 a_9832_9661.t2 SWP[0].t4 VDDD.t1483 VDDD.t1482 sky130_fd_pr__pfet_01v8_hvt ad=0.0651 pd=0.73 as=0.1092 ps=1.36 w=0.42 l=0.15
X121 VDDD.t312 CLKS.t23 a_5960_3677.t0 VDDD.t311 sky130_fd_pr__pfet_01v8_hvt ad=0.07035 pd=0.755 as=0.1092 ps=1.36 w=0.42 l=0.15
X122 VDDD.t1232 a_8275_6335.t3 a_8262_6031.t0 VDDD.t1231 sky130_fd_pr__pfet_01v8_hvt ad=0.0819 pd=0.81 as=0.0567 ps=0.69 w=0.42 l=0.15
X123 SWN[5].t1 a_3767_8181.t3 VDDD.t8 VDDD.t7 sky130_fd_pr__pfet_01v8_hvt ad=0.135 pd=1.27 as=0.26 ps=2.52 w=1 l=0.15
X124 a_9372_10927.t2 x2/net5.t4 VSSD.t844 VSSD.t843 sky130_fd_pr__nfet_01v8 ad=0.066 pd=0.745 as=0.2205 ps=1.89 w=0.42 l=0.15
X125 SWN[6].t3 a_3859_6549.t4 VSSD.t814 VSSD.t813 sky130_fd_pr__nfet_01v8 ad=0.08775 pd=0.92 as=0.169 ps=1.82 w=0.65 l=0.15
X126 a_10032_8751.t1 a_9117_8751.t2 a_9685_8993.t0 VSSD.t723 sky130_fd_pr__special_nfet_01v8 ad=0.0711 pd=0.755 as=0.0999 ps=0.985 w=0.36 l=0.15
X127 a_10032_7663.t2 a_8951_7663.t3 a_9685_7905.t1 VDDD.t1701 sky130_fd_pr__pfet_01v8_hvt ad=0.0588 pd=0.7 as=0.12915 ps=1.185 w=0.42 l=0.15
X128 a_3342_6031.t0 a_2623_6273.t2 a_2779_6005.t1 VSSD.t49 sky130_fd_pr__special_nfet_01v8 ad=0.066 pd=0.745 as=0.0594 ps=0.69 w=0.36 l=0.15
X129 a_6081_7663.t1 a_5915_7663.t2 VSSD.t727 VSSD.t726 sky130_fd_pr__nfet_01v8 ad=0.1092 pd=1.36 as=0.0567 ps=0.69 w=0.42 l=0.15
X130 a_8008_10927.t0 a_7093_10927.t2 a_7661_11169.t3 VSSD.t194 sky130_fd_pr__special_nfet_01v8 ad=0.0711 pd=0.755 as=0.0999 ps=0.985 w=0.36 l=0.15
X131 a_9467_8751.t1 a_9117_8751.t3 a_9372_8751.t0 VDDD.t880 sky130_fd_pr__pfet_01v8_hvt ad=0.07245 pd=0.765 as=0.0651 ps=0.73 w=0.42 l=0.15
X132 a_4625_12257.t2 a_4407_12015.t4 VDDD.t1612 VDDD.t1611 sky130_fd_pr__pfet_01v8_hvt ad=0.12915 pd=1.185 as=0.2184 ps=2.2 w=0.84 l=0.15
X133 VSSD.t962 a_3399_10687.t3 x2/net6.t3 VSSD.t961 sky130_fd_pr__nfet_01v8 ad=0.169 pd=1.82 as=0.08775 ps=0.92 w=0.65 l=0.15
X134 VDDD.t1728 x3/COMP_BUF_P.t16 a_5734_2767.t0 VDDD.t1727 sky130_fd_pr__pfet_01v8_hvt ad=0.1092 pd=1.36 as=0.0651 ps=0.73 w=0.42 l=0.15
X135 a_4343_4917.t1 a_4187_5185.t2 a_4488_4943.t2 VDDD.t1463 sky130_fd_pr__pfet_01v8_hvt ad=0.07245 pd=0.765 as=0.1155 ps=0.97 w=0.42 l=0.15
X136 a_9274_10383.t0 a_8197_10389.t2 a_9112_10761.t3 VDDD.t177 sky130_fd_pr__pfet_01v8_hvt ad=0.0567 pd=0.69 as=0.0588 ps=0.7 w=0.42 l=0.15
X137 clknet_1_0__leaf_CLK.t23 a_7654_4943.t11 VSSD.t1603 VSSD.t1602 sky130_fd_pr__nfet_01v8 ad=0.0588 pd=0.7 as=0.0588 ps=0.7 w=0.42 l=0.15
X138 a_8459_4159.t1 a_8284_4233.t4 a_8638_4221.t1 VSSD.t964 sky130_fd_pr__nfet_01v8 ad=0.1092 pd=1.36 as=0.06405 ps=0.725 w=0.42 l=0.15
X139 a_6855_6717.t1 CF[1].t5 VSSD.t423 VSSD.t422 sky130_fd_pr__nfet_01v8 ad=0.1092 pd=1.36 as=0.0567 ps=0.69 w=0.42 l=0.15
X140 clknet_0_CLK.t15 a_6813_7093.t9 VDDD.t180 VDDD.t179 sky130_fd_pr__pfet_01v8_hvt ad=0.14 pd=1.28 as=0.14 ps=1.28 w=1 l=0.15
X141 VDDD.t407 a_2779_6005.t4 a_2710_6031.t0 VDDD.t406 sky130_fd_pr__pfet_01v8_hvt ad=0.2184 pd=2.2 as=0.12915 ps=1.185 w=0.84 l=0.15
X142 VSSD.t1539 VDDD.t1990 VSSD.t1538 VSSD.t1537 sky130_fd_pr__nfet_01v8 ad=0.143 pd=1.62 as=0 ps=0 w=0.55 l=2.89
X143 a_10111_5487.t3 a_9595_5487.t2 a_10016_5487.t3 VSSD.t1128 sky130_fd_pr__special_nfet_01v8 ad=0.0594 pd=0.69 as=0.066 ps=0.745 w=0.36 l=0.15
X144 a_10676_5487.t2 a_9595_5487.t3 a_10329_5729.t3 VDDD.t1467 sky130_fd_pr__pfet_01v8_hvt ad=0.0588 pd=0.7 as=0.12915 ps=1.185 w=0.42 l=0.15
X145 a_10877_6575.t0 a_9687_6575.t3 a_10768_6575.t0 VSSD.t683 sky130_fd_pr__special_nfet_01v8 ad=0.0669 pd=0.75 as=0.0711 ps=0.755 w=0.36 l=0.15
X146 VSSD.t1822 a_10667_9599.t3 DOUT[0].t3 VSSD.t8 sky130_fd_pr__nfet_01v8 ad=0.169 pd=1.82 as=0.08775 ps=0.92 w=0.65 l=0.15
X147 VDDD.t1198 a_8435_8181.t7 x3/COMP_BUF_P.t7 VDDD.t1197 sky130_fd_pr__pfet_01v8_hvt ad=0.135 pd=1.27 as=0.135 ps=1.27 w=1 l=0.15
X148 VDDD.t1687 a_7824_4399.t4 a_7999_4373.t1 VDDD.t1686 sky130_fd_pr__pfet_01v8_hvt ad=0.1134 pd=1.38 as=0.0567 ps=0.69 w=0.42 l=0.15
X149 a_9575_9117.t0 a_8951_8751.t2 a_9467_8751.t2 VDDD.t1961 sky130_fd_pr__pfet_01v8_hvt ad=0.1155 pd=0.97 as=0.07245 ps=0.765 w=0.42 l=0.15
X150 VDDD.t1518 a_10237_6005.t4 a_10127_6031.t2 VDDD.t1517 sky130_fd_pr__pfet_01v8_hvt ad=0.07035 pd=0.755 as=0.1155 ps=0.97 w=0.42 l=0.15
X151 VSSD.t1178 a_7331_9269.t7 x3/COMP_BUF_N.t15 VSSD.t1177 sky130_fd_pr__nfet_01v8 ad=0.08775 pd=0.92 as=0.08775 ps=0.92 w=0.65 l=0.15
X152 VSSD.t822 a_6077_9813.t10 clknet_1_1__leaf_CLK.t30 VSSD.t821 sky130_fd_pr__nfet_01v8 ad=0.0588 pd=0.7 as=0.0588 ps=0.7 w=0.42 l=0.15
X153 VSSD.t966 a_7631_8511.t3 a_7565_8585.t1 VSSD.t965 sky130_fd_pr__nfet_01v8 ad=0.12495 pd=1.015 as=0.0669 ps=0.75 w=0.42 l=0.15
X154 VSSD.t1536 VDDD.t1991 VSSD.t1535 VSSD.t1437 sky130_fd_pr__nfet_01v8 ad=0.143 pd=1.62 as=0 ps=0 w=0.55 l=0.59
X155 a_7090_9003.t1 a_7368_9019.t2 a_7324_9117.t1 VDDD.t327 sky130_fd_pr__pfet_01v8_hvt ad=0.0588 pd=0.7 as=0.0567 ps=0.69 w=0.42 l=0.15
X156 a_4906_4943.t3 a_4148_5059.t2 a_4343_4917.t0 VDDD.t582 sky130_fd_pr__pfet_01v8_hvt ad=0.0651 pd=0.73 as=0.07245 ps=0.765 w=0.42 l=0.15
X157 a_2856_10927.t0 a_1941_10927.t2 a_2509_11169.t3 VSSD.t666 sky130_fd_pr__special_nfet_01v8 ad=0.0711 pd=0.755 as=0.0999 ps=0.985 w=0.36 l=0.15
X158 VSSD.t1619 a_2439_4541.t2 a_2400_4667.t1 VSSD.t1618 sky130_fd_pr__nfet_01v8 ad=0.0567 pd=0.69 as=0.1092 ps=1.36 w=0.42 l=0.15
X159 a_7153_8573.t1 a_7109_8181.t4 a_6987_8585.t1 VSSD.t1157 sky130_fd_pr__nfet_01v8 ad=0.0441 pd=0.63 as=0.1401 ps=1.1 w=0.42 l=0.15
X160 a_4764_4765.t2 a_4550_4765.t4 VDDD.t1408 VDDD.t1407 sky130_fd_pr__pfet_01v8_hvt ad=0.1155 pd=0.97 as=0.07035 ps=0.755 w=0.42 l=0.15
X161 a_7348_5487.t1 x3/COMP_BUF_P.t17 VSSD.t1722 VSSD.t1721 sky130_fd_pr__nfet_01v8 ad=0.066 pd=0.745 as=0.2205 ps=1.89 w=0.42 l=0.15
X162 VDDD.t1527 a_7948_7637.t4 clkload0.X.t7 VDDD.t1526 sky130_fd_pr__pfet_01v8_hvt ad=0.14 pd=1.28 as=0.14 ps=1.28 w=1 l=0.15
X163 a_5481_11837.t1 a_5102_11471.t4 a_5409_11837.t0 VSSD.t110 sky130_fd_pr__nfet_01v8 ad=0.1401 pd=1.1 as=0.0441 ps=0.63 w=0.42 l=0.15
X164 VDDD.t831 x3/COMP_BUF_N.t16 a_3342_6031.t1 VDDD.t830 sky130_fd_pr__pfet_01v8_hvt ad=0.1092 pd=1.36 as=0.0651 ps=0.73 w=0.42 l=0.15
X165 VDDD.t504 VSSD.t1861 VDDD.t503 VDDD.t502 sky130_fd_pr__pfet_01v8_hvt ad=0.2262 pd=2.26 as=0 ps=0 w=0.87 l=0.59
X166 a_7827_3855.t1 CLKS.t24 VDDD.t314 VDDD.t313 sky130_fd_pr__pfet_01v8_hvt ad=0.1092 pd=1.36 as=0.07035 ps=0.755 w=0.42 l=0.15
X167 a_7093_3311.t1 a_6927_3311.t2 VSSD.t328 VSSD.t327 sky130_fd_pr__nfet_01v8 ad=0.1092 pd=1.36 as=0.0567 ps=0.69 w=0.42 l=0.15
X168 a_10207_3311.t0 a_9761_3311.t3 a_10111_3311.t0 VSSD.t856 sky130_fd_pr__special_nfet_01v8 ad=0.1401 pd=1.1 as=0.0594 ps=0.69 w=0.36 l=0.15
X169 a_6813_7093.t2 CLK.t1 VDDD.t1495 VDDD.t1494 sky130_fd_pr__pfet_01v8_hvt ad=0.14 pd=1.28 as=0.14 ps=1.28 w=1 l=0.15
X170 a_4765_8573.t0 CLKS.t25 VSSD.t251 VSSD.t250 sky130_fd_pr__nfet_01v8 ad=0.0441 pd=0.63 as=0.1346 ps=1.15 w=0.42 l=0.15
X171 a_4411_2741.t2 a_4698_2899.t4 VDDD.t230 VDDD.t229 sky130_fd_pr__pfet_01v8_hvt ad=0.0567 pd=0.69 as=0.1134 ps=1.38 w=0.42 l=0.15
X172 VSSD.t826 a_3859_4373.t3 SWP[6].t3 VSSD.t825 sky130_fd_pr__nfet_01v8 ad=0.2087 pd=2.02 as=0.08775 ps=0.92 w=0.65 l=0.15
X173 VSSD.t253 CLKS.t26 a_4181_8751.t0 VSSD.t252 sky130_fd_pr__nfet_01v8 ad=0.12495 pd=1.015 as=0.06405 ps=0.725 w=0.42 l=0.15
X174 a_10584_6409.t1 a_9669_6037.t2 a_10237_6005.t0 VSSD.t394 sky130_fd_pr__special_nfet_01v8 ad=0.0711 pd=0.755 as=0.0999 ps=0.985 w=0.36 l=0.15
X175 VDDD.t1307 a_7631_8511.t4 DOUT[5].t1 VDDD.t1306 sky130_fd_pr__pfet_01v8_hvt ad=0.26 pd=2.52 as=0.135 ps=1.27 w=1 l=0.15
X176 a_6251_10901.t2 EN.t4 VDDD.t641 VDDD.t640 sky130_fd_pr__pfet_01v8_hvt ad=0.0567 pd=0.69 as=0.0819 ps=0.81 w=0.42 l=0.15
X177 a_7164_4399.t0 x3/COMP_BUF_P.t18 VDDD.t1730 VDDD.t1729 sky130_fd_pr__pfet_01v8_hvt ad=0.0651 pd=0.73 as=0.1092 ps=1.36 w=0.42 l=0.15
X178 VDDD.t709 a_2439_5629.t2 a_2400_5755.t0 VDDD.t708 sky130_fd_pr__pfet_01v8_hvt ad=0.0864 pd=0.91 as=0.1664 ps=1.8 w=0.64 l=0.15
X179 a_5659_3453.t1 clknet_1_0__leaf_CLK.t33 VSSD.t55 VSSD.t54 sky130_fd_pr__nfet_01v8 ad=0.1092 pd=1.36 as=0.0567 ps=0.69 w=0.42 l=0.15
X180 a_9729_7663.t0 a_9685_7905.t4 a_9563_7663.t1 VSSD.t645 sky130_fd_pr__nfet_01v8 ad=0.0441 pd=0.63 as=0.1401 ps=1.1 w=0.42 l=0.15
X181 VSSD.t688 x2/net13.t8 CLKS.t5 VSSD.t687 sky130_fd_pr__nfet_01v8 ad=0.169 pd=1.82 as=0.08775 ps=0.92 w=0.65 l=0.15
X182 VDDD.t643 EN.t5 a_1467_8181.t2 VDDD.t642 sky130_fd_pr__pfet_01v8_hvt ad=0.0819 pd=0.81 as=0.0567 ps=0.69 w=0.42 l=0.15
X183 a_4550_6941.t3 a_4463_6717.t2 a_4146_6827.t2 VDDD.t1682 sky130_fd_pr__pfet_01v8_hvt ad=0.12915 pd=1.185 as=0.0588 ps=0.7 w=0.42 l=0.15
X184 a_10233_7497.t1 a_9043_7125.t2 a_10124_7497.t2 VSSD.t1720 sky130_fd_pr__special_nfet_01v8 ad=0.0669 pd=0.75 as=0.0711 ps=0.755 w=0.36 l=0.15
X185 a_4365_7663.t1 a_4330_7915.t4 a_4043_7637.t2 VSSD.t1759 sky130_fd_pr__nfet_01v8 ad=0.06405 pd=0.725 as=0.1092 ps=1.36 w=0.42 l=0.15
X186 VSSD.t997 a_10667_5247.t4 a_10601_5321.t1 VSSD.t996 sky130_fd_pr__nfet_01v8 ad=0.12495 pd=1.015 as=0.0669 ps=0.75 w=0.42 l=0.15
X187 VDDD.t507 VSSD.t1862 VDDD.t506 VDDD.t505 sky130_fd_pr__pfet_01v8_hvt ad=0.2262 pd=2.26 as=0 ps=0 w=0.87 l=0.59
X188 VSSD.t1534 VDDD.t1992 VSSD.t1533 VSSD.t1532 sky130_fd_pr__nfet_01v8 ad=0.143 pd=1.62 as=0 ps=0 w=0.55 l=4.73
X189 a_2019_6005.t2 a_2306_6163.t4 VDDD.t879 VDDD.t878 sky130_fd_pr__pfet_01v8_hvt ad=0.0567 pd=0.69 as=0.1134 ps=1.38 w=0.42 l=0.15
X190 VSSD.t255 CLKS.t27 a_2341_6397.t0 VSSD.t254 sky130_fd_pr__nfet_01v8 ad=0.12495 pd=1.015 as=0.06405 ps=0.725 w=0.42 l=0.15
X191 a_11030_3311.t0 CLKS.t28 VSSD.t257 VSSD.t256 sky130_fd_pr__nfet_01v8 ad=0.06405 pd=0.725 as=0.12495 ps=1.015 w=0.42 l=0.15
X192 DOUT[5].t3 a_7631_8511.t5 VSSD.t968 VSSD.t967 sky130_fd_pr__nfet_01v8 ad=0.08775 pd=0.92 as=0.2087 ps=2.02 w=0.65 l=0.15
X193 VSSD.t259 CLKS.t29 a_7521_4399.t1 VSSD.t258 sky130_fd_pr__nfet_01v8 ad=0.1346 pd=1.15 as=0.0441 ps=0.63 w=0.42 l=0.15
X194 VDDD.t1384 a_6251_6549.t3 SWN[1].t1 VDDD.t1383 sky130_fd_pr__pfet_01v8_hvt ad=0.3012 pd=2.66 as=0.135 ps=1.27 w=1 l=0.15
X195 a_7999_4373.t0 a_7824_4399.t5 a_8178_4399.t0 VSSD.t1693 sky130_fd_pr__nfet_01v8 ad=0.1092 pd=1.36 as=0.06405 ps=0.725 w=0.42 l=0.15
X196 VDDD.t857 a_5055_3285.t5 CF[1].t1 VDDD.t856 sky130_fd_pr__pfet_01v8_hvt ad=0.3012 pd=2.66 as=0.135 ps=1.27 w=1 l=0.15
X197 a_10189_5309.t1 a_10145_4917.t4 a_10023_5321.t0 VSSD.t861 sky130_fd_pr__nfet_01v8 ad=0.0441 pd=0.63 as=0.1401 ps=1.1 w=0.42 l=0.15
X198 a_2595_5724.t2 a_2400_5755.t2 a_2905_5487.t0 VSSD.t743 sky130_fd_pr__special_nfet_01v8 ad=0.0594 pd=0.69 as=0.1401 ps=1.1 w=0.36 l=0.15
X199 VDDD.t510 VSSD.t1863 VDDD.t509 VDDD.t508 sky130_fd_pr__pfet_01v8_hvt ad=0.2262 pd=2.26 as=0 ps=0 w=0.87 l=0.59
X200 a_8100_6409.t3 a_7185_6037.t2 a_7753_6005.t1 VSSD.t708 sky130_fd_pr__special_nfet_01v8 ad=0.0711 pd=0.755 as=0.0999 ps=0.985 w=0.36 l=0.15
X201 VDDD.t316 CLKS.t30 a_7156_6941.t1 VDDD.t315 sky130_fd_pr__pfet_01v8_hvt ad=0.07035 pd=0.755 as=0.1092 ps=1.36 w=0.42 l=0.15
X202 VDDD.t170 a_5147_11989.t3 x2/TRIG1.t1 VDDD.t169 sky130_fd_pr__pfet_01v8_hvt ad=0.26 pd=2.52 as=0.135 ps=1.27 w=1 l=0.15
X203 clknet_1_1__leaf_CLK.t29 a_6077_9813.t11 VSSD.t824 VSSD.t823 sky130_fd_pr__nfet_01v8 ad=0.0588 pd=0.7 as=0.0588 ps=0.7 w=0.42 l=0.15
X204 a_10746_3855.t1 a_9669_3861.t2 a_10584_4233.t3 VDDD.t1928 sky130_fd_pr__pfet_01v8_hvt ad=0.0567 pd=0.69 as=0.0588 ps=0.7 w=0.42 l=0.15
X205 a_10329_5729.t2 a_10111_5487.t4 VDDD.t1210 VDDD.t1209 sky130_fd_pr__pfet_01v8_hvt ad=0.12915 pd=1.185 as=0.2184 ps=2.2 w=0.84 l=0.15
X206 a_7873_8751.t1 a_7494_9117.t4 a_7801_8751.t1 VSSD.t87 sky130_fd_pr__nfet_01v8 ad=0.1401 pd=1.1 as=0.0441 ps=0.63 w=0.42 l=0.15
X207 VDDD.t409 a_1835_4373.t4 SWP[7].t1 VDDD.t408 sky130_fd_pr__pfet_01v8_hvt ad=0.3012 pd=2.66 as=0.135 ps=1.27 w=1 l=0.15
X208 a_7365_8751.t0 a_6803_8725.t3 VSSD.t290 VSSD.t289 sky130_fd_pr__nfet_01v8 ad=0.0669 pd=0.75 as=0.12495 ps=1.015 w=0.42 l=0.15
X209 CKO.t0 a_8615_7457.t3 VDDD.t242 VDDD.t241 sky130_fd_pr__pfet_01v8_hvt ad=0.475 pd=2.95 as=0.16655 ps=1.39 w=1 l=0.15
X210 a_7551_5853.t0 CLKS.t31 VDDD.t392 VDDD.t391 sky130_fd_pr__pfet_01v8_hvt ad=0.1092 pd=1.36 as=0.07035 ps=0.755 w=0.42 l=0.15
X211 a_7624_4221.t0 x3/COMP_BUF_P.t19 VDDD.t1732 VDDD.t1731 sky130_fd_pr__pfet_01v8_hvt ad=0.0651 pd=0.73 as=0.1092 ps=1.36 w=0.42 l=0.15
X212 x3/COMP_BUF_P.t14 a_8435_8181.t8 VSSD.t848 VSSD.t847 sky130_fd_pr__nfet_01v8 ad=0.08775 pd=0.92 as=0.08775 ps=0.92 w=0.65 l=0.15
X213 a_2122_5739.t0 a_2439_5629.t3 a_2397_5487.t1 VSSD.t540 sky130_fd_pr__special_nfet_01v8 ad=0.0711 pd=0.755 as=0.0669 ps=0.75 w=0.36 l=0.15
X214 a_7185_6037.t1 a_7019_6037.t2 VSSD.t842 VSSD.t841 sky130_fd_pr__nfet_01v8 ad=0.1092 pd=1.36 as=0.0567 ps=0.69 w=0.42 l=0.15
X215 a_9372_7663.t3 SWP[4].t4 VSSD.t840 VSSD.t839 sky130_fd_pr__nfet_01v8 ad=0.066 pd=0.745 as=0.2205 ps=1.89 w=0.42 l=0.15
X216 VSSD.t668 x3/COMP_BUF_N.t17 a_5182_6941.t2 VSSD.t667 sky130_fd_pr__nfet_01v8 ad=0.2205 pd=1.89 as=0.066 ps=0.745 w=0.42 l=0.15
X217 clknet_1_1__leaf_CLK.t14 a_6077_9813.t12 VDDD.t1181 VDDD.t1180 sky130_fd_pr__pfet_01v8_hvt ad=0.14 pd=1.28 as=0.14 ps=1.28 w=1 l=0.15
X218 VDDD.t1950 x3/COMP_BUF_N.t18 a_5182_6941.t1 VDDD.t1949 sky130_fd_pr__pfet_01v8_hvt ad=0.1092 pd=1.36 as=0.0651 ps=0.73 w=0.42 l=0.15
X219 a_3031_11849.t1 a_2585_11477.t2 a_2935_11849.t2 VSSD.t0 sky130_fd_pr__special_nfet_01v8 ad=0.1401 pd=1.1 as=0.0594 ps=0.69 w=0.36 l=0.15
X220 VDDD.t373 a_1467_8725.t3 DOUT[8].t1 VDDD.t372 sky130_fd_pr__pfet_01v8_hvt ad=0.3012 pd=2.66 as=0.135 ps=1.27 w=1 l=0.15
X221 clknet_1_0__leaf_CLK.t24 a_7654_4943.t12 VDDD.t1608 VDDD.t1607 sky130_fd_pr__pfet_01v8_hvt ad=0.14 pd=1.28 as=0.14 ps=1.28 w=1 l=0.15
X222 a_8701_7457.t1 FINAL.t16 a_8615_7457.t1 VSSD.t457 sky130_fd_pr__nfet_01v8 ad=0.0567 pd=0.69 as=0.1176 ps=1.4 w=0.42 l=0.15
X223 a_5729_11169.t3 a_5511_10927.t4 VSSD.t11 VSSD.t10 sky130_fd_pr__nfet_01v8 ad=0.0999 pd=0.985 as=0.1346 ps=1.15 w=0.64 l=0.15
X224 VDDD.t513 VSSD.t1864 VDDD.t512 VDDD.t511 sky130_fd_pr__pfet_01v8_hvt ad=0.2262 pd=2.26 as=0 ps=0 w=0.87 l=0.59
X225 a_4775_4233.t0 a_4259_3861.t3 a_4680_4221.t2 VSSD.t665 sky130_fd_pr__special_nfet_01v8 ad=0.0594 pd=0.69 as=0.066 ps=0.745 w=0.36 l=0.15