* NGSPICE file created from user_analog_project_wrapper.ext - technology: sky130A

.subckt sky130_fd_sc_hd__and2_1 A B VGND VNB VPB VPWR X
X0 VPWR B a_59_75# VPB sky130_fd_pr__pfet_01v8_hvt ad=0.16655 pd=1.39 as=0.0567 ps=0.69 w=0.42 l=0.15
X1 X a_59_75# VPWR VPB sky130_fd_pr__pfet_01v8_hvt ad=0.475 pd=2.95 as=0.16655 ps=1.39 w=1 l=0.15
X2 VGND B a_145_75# VNB sky130_fd_pr__nfet_01v8 ad=0.1118 pd=1.04 as=0.0567 ps=0.69 w=0.42 l=0.15
X3 a_59_75# A VPWR VPB sky130_fd_pr__pfet_01v8_hvt ad=0.0567 pd=0.69 as=0.1176 ps=1.4 w=0.42 l=0.15
X4 X a_59_75# VGND VNB sky130_fd_pr__nfet_01v8 ad=0.182 pd=1.86 as=0.1118 ps=1.04 w=0.65 l=0.15
X5 a_145_75# A a_59_75# VNB sky130_fd_pr__nfet_01v8 ad=0.0567 pd=0.69 as=0.1176 ps=1.4 w=0.42 l=0.15
.ends

.subckt and_latch x1/VPWR x1/VPB x1/B x1/A x1/VGND x1/X VSUBS
Xx1 x1/A x1/B x1/VGND VSUBS x1/VPB x1/VPWR x1/X sky130_fd_sc_hd__and2_1
.ends

.subckt sky130_fd_sc_hd__dfrtp_2 CLK D RESET_B VGND VNB VPB VPWR Q
X0 a_1217_47# a_27_47# a_1108_47# VNB sky130_fd_pr__nfet_01v8 ad=0.0669 pd=0.75 as=0.0711 ps=0.755 w=0.36 l=0.15
X1 a_805_47# a_761_289# a_639_47# VNB sky130_fd_pr__nfet_01v8 ad=0.0441 pd=0.63 as=0.1401 ps=1.1 w=0.42 l=0.15
X2 VGND a_1283_21# Q VNB sky130_fd_pr__nfet_01v8 ad=0.169 pd=1.82 as=0.08775 ps=0.92 w=0.65 l=0.15
X3 a_1108_47# a_193_47# a_761_289# VNB sky130_fd_pr__nfet_01v8 ad=0.0711 pd=0.755 as=0.0999 ps=0.985 w=0.36 l=0.15
X4 a_1283_21# a_1108_47# a_1462_47# VNB sky130_fd_pr__nfet_01v8 ad=0.1092 pd=1.36 as=0.06405 ps=0.725 w=0.42 l=0.15
X5 a_651_413# a_27_47# a_543_47# VPB sky130_fd_pr__pfet_01v8_hvt ad=0.1155 pd=0.97 as=0.07245 ps=0.765 w=0.42 l=0.15
X6 VPWR a_1283_21# Q VPB sky130_fd_pr__pfet_01v8_hvt ad=0.26 pd=2.52 as=0.135 ps=1.27 w=1 l=0.15
X7 VGND RESET_B a_805_47# VNB sky130_fd_pr__nfet_01v8 ad=0.1346 pd=1.15 as=0.0441 ps=0.63 w=0.42 l=0.15
X8 Q a_1283_21# VPWR VPB sky130_fd_pr__pfet_01v8_hvt ad=0.135 pd=1.27 as=0.3012 ps=2.66 w=1 l=0.15
X9 VPWR CLK a_27_47# VPB sky130_fd_pr__pfet_01v8_hvt ad=0.0864 pd=0.91 as=0.1664 ps=1.8 w=0.64 l=0.15
X10 a_448_47# D VPWR VPB sky130_fd_pr__pfet_01v8_hvt ad=0.0651 pd=0.73 as=0.1092 ps=1.36 w=0.42 l=0.15
X11 a_761_289# a_543_47# VGND VNB sky130_fd_pr__nfet_01v8 ad=0.0999 pd=0.985 as=0.1346 ps=1.15 w=0.64 l=0.15
X12 a_193_47# a_27_47# VGND VNB sky130_fd_pr__nfet_01v8 ad=0.1092 pd=1.36 as=0.0567 ps=0.69 w=0.42 l=0.15
X13 a_1108_47# a_27_47# a_761_289# VPB sky130_fd_pr__pfet_01v8_hvt ad=0.0588 pd=0.7 as=0.12915 ps=1.185 w=0.42 l=0.15
X14 a_543_47# a_27_47# a_448_47# VNB sky130_fd_pr__nfet_01v8 ad=0.0594 pd=0.69 as=0.066 ps=0.745 w=0.36 l=0.15
X15 a_1462_47# RESET_B VGND VNB sky130_fd_pr__nfet_01v8 ad=0.06405 pd=0.725 as=0.12495 ps=1.015 w=0.42 l=0.15
X16 a_543_47# a_193_47# a_448_47# VPB sky130_fd_pr__pfet_01v8_hvt ad=0.07245 pd=0.765 as=0.0651 ps=0.73 w=0.42 l=0.15
X17 a_448_47# D VGND VNB sky130_fd_pr__nfet_01v8 ad=0.066 pd=0.745 as=0.2205 ps=1.89 w=0.42 l=0.15
X18 VPWR a_1283_21# a_1270_413# VPB sky130_fd_pr__pfet_01v8_hvt ad=0.0819 pd=0.81 as=0.0567 ps=0.69 w=0.42 l=0.15
X19 VPWR a_1108_47# a_1283_21# VPB sky130_fd_pr__pfet_01v8_hvt ad=0.1134 pd=1.38 as=0.0567 ps=0.69 w=0.42 l=0.15
X20 a_1270_413# a_193_47# a_1108_47# VPB sky130_fd_pr__pfet_01v8_hvt ad=0.0567 pd=0.69 as=0.0588 ps=0.7 w=0.42 l=0.15
X21 a_193_47# a_27_47# VPWR VPB sky130_fd_pr__pfet_01v8_hvt ad=0.1664 pd=1.8 as=0.0864 ps=0.91 w=0.64 l=0.15
X22 a_1283_21# RESET_B VPWR VPB sky130_fd_pr__pfet_01v8_hvt ad=0.0567 pd=0.69 as=0.0819 ps=0.81 w=0.42 l=0.15
X23 VPWR a_761_289# a_651_413# VPB sky130_fd_pr__pfet_01v8_hvt ad=0.07035 pd=0.755 as=0.1155 ps=0.97 w=0.42 l=0.15
X24 Q a_1283_21# VGND VNB sky130_fd_pr__nfet_01v8 ad=0.08775 pd=0.92 as=0.2087 ps=2.02 w=0.65 l=0.15
X25 a_639_47# a_193_47# a_543_47# VNB sky130_fd_pr__nfet_01v8 ad=0.1401 pd=1.1 as=0.0594 ps=0.69 w=0.36 l=0.15
X26 VGND a_1283_21# a_1217_47# VNB sky130_fd_pr__nfet_01v8 ad=0.12495 pd=1.015 as=0.0669 ps=0.75 w=0.42 l=0.15
X27 a_651_413# RESET_B VPWR VPB sky130_fd_pr__pfet_01v8_hvt ad=0.1092 pd=1.36 as=0.07035 ps=0.755 w=0.42 l=0.15
X28 VGND CLK a_27_47# VNB sky130_fd_pr__nfet_01v8 ad=0.0567 pd=0.69 as=0.1092 ps=1.36 w=0.42 l=0.15
X29 a_761_289# a_543_47# VPWR VPB sky130_fd_pr__pfet_01v8_hvt ad=0.12915 pd=1.185 as=0.2184 ps=2.2 w=0.84 l=0.15
.ends

.subckt flip_flop_5_latch x3/Q x1/D x6/RESET_B x3/D x2/Q x6/VGND x4/Q x6/Q x2/D x6/VPB
+ x6/VPWR x6/CLK x6/D VSUBS x4/D x1/Q
Xx1 x6/CLK x1/D x6/RESET_B x6/VGND VSUBS x6/VPB x6/VPWR x1/Q sky130_fd_sc_hd__dfrtp_2
Xx2 x6/CLK x2/D x6/RESET_B x6/VGND VSUBS x6/VPB x6/VPWR x2/Q sky130_fd_sc_hd__dfrtp_2
Xx3 x6/CLK x3/D x6/RESET_B x6/VGND VSUBS x6/VPB x6/VPWR x3/Q sky130_fd_sc_hd__dfrtp_2
Xx4 x6/CLK x4/D x6/RESET_B x6/VGND VSUBS x6/VPB x6/VPWR x4/Q sky130_fd_sc_hd__dfrtp_2
Xx6 x6/CLK x6/D x6/RESET_B x6/VGND VSUBS x6/VPB x6/VPWR x6/Q sky130_fd_sc_hd__dfrtp_2
.ends

.subckt out_latch FINAL CLKS EN CK DOUT[1] DOUT[2] DOUT[3] DOUT[4] DOUT[5] DOUT[6]
+ DOUT[7] DOUT[8] DOUT[9] SWP[0] SWP[1] SWP[2] SWP[3] SWP[4] SWP[5] SWP[6] SWP[7]
+ SWP[8] SWP[9] DOUT[0] a_10348_n476# VDDD a_10348_404# VSSD
Xand_latch_0 VDDD VDDD CLKS FINAL VSSD CK VSSD and_latch
Xflip_flop_5_latch_0 DOUT[5] SWP[1] EN SWP[5] DOUT[3] VSSD DOUT[7] DOUT[9] SWP[3]
+ VDDD VDDD CK SWP[9] VSSD SWP[7] DOUT[1] flip_flop_5_latch
Xflip_flop_5_latch_1 DOUT[4] SWP[8] EN SWP[4] DOUT[6] VSSD DOUT[2] DOUT[0] SWP[6]
+ VDDD VDDD CK SWP[0] VSSD SWP[2] DOUT[8] flip_flop_5_latch
.ends

.subckt flip_flop_5 D x6/D x3/D x6/Q RESET_B x6/VGND x2/D CLK x6/VPWR x6/VPB VSUBS
+ x4/D
Xx1 CLK D RESET_B x6/VGND VSUBS x6/VPB x6/VPWR x2/D sky130_fd_sc_hd__dfrtp_2
Xx2 CLK x2/D RESET_B x6/VGND VSUBS x6/VPB x6/VPWR x3/D sky130_fd_sc_hd__dfrtp_2
Xx3 CLK x3/D RESET_B x6/VGND VSUBS x6/VPB x6/VPWR x4/D sky130_fd_sc_hd__dfrtp_2
Xx4 CLK x4/D RESET_B x6/VGND VSUBS x6/VPB x6/VPWR x6/D sky130_fd_sc_hd__dfrtp_2
Xx6 CLK x6/D RESET_B x6/VGND VSUBS x6/VPB x6/VPWR x6/Q sky130_fd_sc_hd__dfrtp_2
.ends

.subckt sky130_fd_sc_hd__buf_8 A VGND VNB VPB VPWR X
X0 X a_27_47# VGND VNB sky130_fd_pr__nfet_01v8 ad=0.08775 pd=0.92 as=0.08775 ps=0.92 w=0.65 l=0.15
X1 X a_27_47# VGND VNB sky130_fd_pr__nfet_01v8 ad=0.08775 pd=0.92 as=0.08775 ps=0.92 w=0.65 l=0.15
X2 X a_27_47# VGND VNB sky130_fd_pr__nfet_01v8 ad=0.08775 pd=0.92 as=0.08775 ps=0.92 w=0.65 l=0.15
X3 VPWR a_27_47# X VPB sky130_fd_pr__pfet_01v8_hvt ad=0.135 pd=1.27 as=0.135 ps=1.27 w=1 l=0.15
X4 X a_27_47# VPWR VPB sky130_fd_pr__pfet_01v8_hvt ad=0.135 pd=1.27 as=0.135 ps=1.27 w=1 l=0.15
X5 VGND a_27_47# X VNB sky130_fd_pr__nfet_01v8 ad=0.169 pd=1.82 as=0.08775 ps=0.92 w=0.65 l=0.15
X6 VPWR A a_27_47# VPB sky130_fd_pr__pfet_01v8_hvt ad=0.135 pd=1.27 as=0.135 ps=1.27 w=1 l=0.15
X7 VPWR a_27_47# X VPB sky130_fd_pr__pfet_01v8_hvt ad=0.26 pd=2.52 as=0.135 ps=1.27 w=1 l=0.15
X8 a_27_47# A VPWR VPB sky130_fd_pr__pfet_01v8_hvt ad=0.135 pd=1.27 as=0.135 ps=1.27 w=1 l=0.15
X9 X a_27_47# VPWR VPB sky130_fd_pr__pfet_01v8_hvt ad=0.135 pd=1.27 as=0.135 ps=1.27 w=1 l=0.15
X10 a_27_47# A VGND VNB sky130_fd_pr__nfet_01v8 ad=0.08775 pd=0.92 as=0.08775 ps=0.92 w=0.65 l=0.15
X11 X a_27_47# VGND VNB sky130_fd_pr__nfet_01v8 ad=0.08775 pd=0.92 as=0.08775 ps=0.92 w=0.65 l=0.15
X12 VPWR a_27_47# X VPB sky130_fd_pr__pfet_01v8_hvt ad=0.135 pd=1.27 as=0.135 ps=1.27 w=1 l=0.15
X13 X a_27_47# VPWR VPB sky130_fd_pr__pfet_01v8_hvt ad=0.135 pd=1.27 as=0.135 ps=1.27 w=1 l=0.15
X14 VGND A a_27_47# VNB sky130_fd_pr__nfet_01v8 ad=0.08775 pd=0.92 as=0.08775 ps=0.92 w=0.65 l=0.15
X15 VGND a_27_47# X VNB sky130_fd_pr__nfet_01v8 ad=0.08775 pd=0.92 as=0.08775 ps=0.92 w=0.65 l=0.15
X16 VPWR a_27_47# X VPB sky130_fd_pr__pfet_01v8_hvt ad=0.135 pd=1.27 as=0.135 ps=1.27 w=1 l=0.15
X17 VGND a_27_47# X VNB sky130_fd_pr__nfet_01v8 ad=0.08775 pd=0.92 as=0.08775 ps=0.92 w=0.65 l=0.15
X18 VGND a_27_47# X VNB sky130_fd_pr__nfet_01v8 ad=0.08775 pd=0.92 as=0.08775 ps=0.92 w=0.65 l=0.15
X19 X a_27_47# VPWR VPB sky130_fd_pr__pfet_01v8_hvt ad=0.135 pd=1.27 as=0.135 ps=1.27 w=1 l=0.15
X20 VPWR A a_27_47# VPB sky130_fd_pr__pfet_01v8_hvt ad=0.135 pd=1.27 as=0.26 ps=2.52 w=1 l=0.15
X21 VGND A a_27_47# VNB sky130_fd_pr__nfet_01v8 ad=0.08775 pd=0.92 as=0.169 ps=1.82 w=0.65 l=0.15
.ends

.subckt buf x5/VPB x5/VPWR x5/A x5/VGND x5/X VSUBS
Xx5 x5/A x5/VGND VSUBS x5/VPB x5/VPWR x5/X sky130_fd_sc_hd__buf_8
.ends

.subckt cyclic_flag EN RDY CLKS FINAL CF[0] CF[1] CF[2] CF[3] CF[4] CF[5] CF[6] CF[7]
+ CF[8] CF[9] VDDD VSSD
Xflip_flop_5_0 EN CF[6] CF[8] CF[5] CLKS VSSD CF[9] RDY VDDD VDDD VSSD CF[7] flip_flop_5
Xflip_flop_5_1 CF[5] CF[1] CF[3] CF[0] CLKS VSSD CF[4] RDY VDDD VDDD VSSD CF[2] flip_flop_5
Xbuf_0 VDDD VDDD CF[0] VSSD FINAL VSSD buf
.ends

.subckt sky130_fd_sc_hd__inv_1 A VGND VNB VPB VPWR Y
X0 Y A VGND VNB sky130_fd_pr__nfet_01v8 ad=0.169 pd=1.82 as=0.169 ps=1.82 w=0.65 l=0.15
X1 Y A VPWR VPB sky130_fd_pr__pfet_01v8_hvt ad=0.26 pd=2.52 as=0.26 ps=2.52 w=1 l=0.15
.ends

.subckt sky130_fd_sc_hd__inv_2 A VGND VNB VPB VPWR Y
X0 Y A VPWR VPB sky130_fd_pr__pfet_01v8_hvt ad=0.135 pd=1.27 as=0.26 ps=2.52 w=1 l=0.15
X1 VGND A Y VNB sky130_fd_pr__nfet_01v8 ad=0.169 pd=1.82 as=0.08775 ps=0.92 w=0.65 l=0.15
X2 Y A VGND VNB sky130_fd_pr__nfet_01v8 ad=0.08775 pd=0.92 as=0.169 ps=1.82 w=0.65 l=0.15
X3 VPWR A Y VPB sky130_fd_pr__pfet_01v8_hvt ad=0.26 pd=2.52 as=0.135 ps=1.27 w=1 l=0.15
.ends

.subckt sky130_fd_sc_hd__inv_4 A VGND VNB VPB VPWR Y
X0 VPWR A Y VPB sky130_fd_pr__pfet_01v8_hvt ad=0.26 pd=2.52 as=0.135 ps=1.27 w=1 l=0.15
X1 Y A VPWR VPB sky130_fd_pr__pfet_01v8_hvt ad=0.135 pd=1.27 as=0.135 ps=1.27 w=1 l=0.15
X2 Y A VGND VNB sky130_fd_pr__nfet_01v8 ad=0.08775 pd=0.92 as=0.169 ps=1.82 w=0.65 l=0.15
X3 VPWR A Y VPB sky130_fd_pr__pfet_01v8_hvt ad=0.135 pd=1.27 as=0.135 ps=1.27 w=1 l=0.15
X4 VGND A Y VNB sky130_fd_pr__nfet_01v8 ad=0.08775 pd=0.92 as=0.08775 ps=0.92 w=0.65 l=0.15
X5 Y A VPWR VPB sky130_fd_pr__pfet_01v8_hvt ad=0.135 pd=1.27 as=0.26 ps=2.52 w=1 l=0.15
X6 VGND A Y VNB sky130_fd_pr__nfet_01v8 ad=0.169 pd=1.82 as=0.08775 ps=0.92 w=0.65 l=0.15
X7 Y A VGND VNB sky130_fd_pr__nfet_01v8 ad=0.08775 pd=0.92 as=0.08775 ps=0.92 w=0.65 l=0.15
.ends

.subckt sky130_fd_sc_hd__inv_8 A VGND VNB VPB VPWR Y
X0 VPWR A Y VPB sky130_fd_pr__pfet_01v8_hvt ad=0.135 pd=1.27 as=0.135 ps=1.27 w=1 l=0.15
X1 Y A VPWR VPB sky130_fd_pr__pfet_01v8_hvt ad=0.135 pd=1.27 as=0.135 ps=1.27 w=1 l=0.15
X2 Y A VGND VNB sky130_fd_pr__nfet_01v8 ad=0.08775 pd=0.92 as=0.08775 ps=0.92 w=0.65 l=0.15
X3 Y A VGND VNB sky130_fd_pr__nfet_01v8 ad=0.08775 pd=0.92 as=0.08775 ps=0.92 w=0.65 l=0.15
X4 VPWR A Y VPB sky130_fd_pr__pfet_01v8_hvt ad=0.135 pd=1.27 as=0.135 ps=1.27 w=1 l=0.15
X5 Y A VPWR VPB sky130_fd_pr__pfet_01v8_hvt ad=0.135 pd=1.27 as=0.26 ps=2.52 w=1 l=0.15
X6 Y A VGND VNB sky130_fd_pr__nfet_01v8 ad=0.08775 pd=0.92 as=0.169 ps=1.82 w=0.65 l=0.15
X7 VPWR A Y VPB sky130_fd_pr__pfet_01v8_hvt ad=0.26 pd=2.52 as=0.135 ps=1.27 w=1 l=0.15
X8 Y A VGND VNB sky130_fd_pr__nfet_01v8 ad=0.08775 pd=0.92 as=0.08775 ps=0.92 w=0.65 l=0.15
X9 Y A VPWR VPB sky130_fd_pr__pfet_01v8_hvt ad=0.135 pd=1.27 as=0.135 ps=1.27 w=1 l=0.15
X10 VPWR A Y VPB sky130_fd_pr__pfet_01v8_hvt ad=0.135 pd=1.27 as=0.135 ps=1.27 w=1 l=0.15
X11 VGND A Y VNB sky130_fd_pr__nfet_01v8 ad=0.08775 pd=0.92 as=0.08775 ps=0.92 w=0.65 l=0.15
X12 VGND A Y VNB sky130_fd_pr__nfet_01v8 ad=0.08775 pd=0.92 as=0.08775 ps=0.92 w=0.65 l=0.15
X13 VGND A Y VNB sky130_fd_pr__nfet_01v8 ad=0.08775 pd=0.92 as=0.08775 ps=0.92 w=0.65 l=0.15
X14 Y A VPWR VPB sky130_fd_pr__pfet_01v8_hvt ad=0.135 pd=1.27 as=0.135 ps=1.27 w=1 l=0.15
X15 VGND A Y VNB sky130_fd_pr__nfet_01v8 ad=0.169 pd=1.82 as=0.08775 ps=0.92 w=0.65 l=0.15
.ends

.subckt auto_sampling CLKSB CLKS CKC RST VSSD VDDD
Xx1 CKC x7/Q RST VSSD VSSD VDDD VDDD x2/D sky130_fd_sc_hd__dfrtp_2
Xx3 CKC x3/D RST VSSD VSSD VDDD VDDD x5/D sky130_fd_sc_hd__dfrtp_2
Xx2 CKC x2/D RST VSSD VSSD VDDD VDDD x3/D sky130_fd_sc_hd__dfrtp_2
Xx4 x4/A VSSD VSSD VDDD VDDD x4/Y sky130_fd_sc_hd__inv_1
Xx5 CKC x5/D RST VSSD VSSD VDDD VDDD x5/Q sky130_fd_sc_hd__dfrtp_2
Xx7 CKC x7/D RST VSSD VSSD VDDD VDDD x7/Q sky130_fd_sc_hd__dfrtp_2
Xx21 CKC x21/D RST VSSD VSSD VDDD VDDD x7/D sky130_fd_sc_hd__dfrtp_2
Xx11 CKC x5/Q RST VSSD VSSD VDDD VDDD x4/A sky130_fd_sc_hd__dfrtp_2
Xx22 x22/A VSSD VSSD VDDD VDDD x23/A sky130_fd_sc_hd__inv_2
Xx23 x23/A VSSD VSSD VDDD VDDD x24/A sky130_fd_sc_hd__inv_4
Xx12 CKC x4/Y RST VSSD VSSD VDDD VDDD x22/A sky130_fd_sc_hd__dfrtp_2
Xx24 x24/A VSSD VSSD VDDD VDDD CLKS sky130_fd_sc_hd__inv_8
Xx13 CKC x22/A RST VSSD VSSD VDDD VDDD x14/D sky130_fd_sc_hd__dfrtp_2
Xx15 CKC x15/D RST VSSD VSSD VDDD VDDD x16/D sky130_fd_sc_hd__dfrtp_2
Xx25 CLKS VSSD VSSD VDDD VDDD CLKSB sky130_fd_sc_hd__inv_1
Xx14 CKC x14/D RST VSSD VSSD VDDD VDDD x15/D sky130_fd_sc_hd__dfrtp_2
Xx16 CKC x16/D RST VSSD VSSD VDDD VDDD x21/D sky130_fd_sc_hd__dfrtp_2
.ends

.subckt cdac_ctrl CLKS COMP_P COMP_N CF[0] CF[1] CF[3] CF[4] CF[5] CF[6] CF[7] CF[8]
+ CF[9] SWN[0] SWN[1] SWN[2] SWN[3] SWN[4] SWN[5] SWN[6] SWN[7] SWN[8] SWN[9] SWP[0]
+ SWP[1] SWP[2] SWP[3] SWP[4] SWP[5] SWP[6] SWP[7] SWP[8] SWP[9] CF[2] VDDD VSSD
Xx1 COMP_P VSSD VSSD VDDD VDDD x1/X sky130_fd_sc_hd__buf_8
Xx2 COMP_N VSSD VSSD VDDD VDDD x2/X sky130_fd_sc_hd__buf_8
Xx1[9] CF[9] x1/X CLKS VSSD VSSD VDDD VDDD SWP[9] sky130_fd_sc_hd__dfrtp_2
Xx1[8] CF[8] x1/X CLKS VSSD VSSD VDDD VDDD SWP[8] sky130_fd_sc_hd__dfrtp_2
Xx1[7] CF[7] x1/X CLKS VSSD VSSD VDDD VDDD SWP[7] sky130_fd_sc_hd__dfrtp_2
Xx1[6] CF[6] x1/X CLKS VSSD VSSD VDDD VDDD SWP[6] sky130_fd_sc_hd__dfrtp_2
Xx1[4] CF[4] x1/X CLKS VSSD VSSD VDDD VDDD SWP[4] sky130_fd_sc_hd__dfrtp_2
Xx1[5] CF[5] x1/X CLKS VSSD VSSD VDDD VDDD SWP[5] sky130_fd_sc_hd__dfrtp_2
Xx1[3] CF[3] x1/X CLKS VSSD VSSD VDDD VDDD SWP[3] sky130_fd_sc_hd__dfrtp_2
Xx1[2] CF[2] x1/X CLKS VSSD VSSD VDDD VDDD SWP[2] sky130_fd_sc_hd__dfrtp_2
Xx1[1] CF[1] x1/X CLKS VSSD VSSD VDDD VDDD SWP[1] sky130_fd_sc_hd__dfrtp_2
Xx1[0] CF[0] x1/X CLKS VSSD VSSD VDDD VDDD SWP[0] sky130_fd_sc_hd__dfrtp_2
Xsky130_fd_sc_hd__dfrtp_2_0 CF[1] x2/X CLKS VSSD VSSD VDDD VDDD SWN[1] sky130_fd_sc_hd__dfrtp_2
Xsky130_fd_sc_hd__dfrtp_2_1 CF[0] x2/X CLKS VSSD VSSD VDDD VDDD SWN[0] sky130_fd_sc_hd__dfrtp_2
Xsky130_fd_sc_hd__dfrtp_2_2 CF[3] x2/X CLKS VSSD VSSD VDDD VDDD SWN[3] sky130_fd_sc_hd__dfrtp_2
Xsky130_fd_sc_hd__dfrtp_2_3 CF[2] x2/X CLKS VSSD VSSD VDDD VDDD SWN[2] sky130_fd_sc_hd__dfrtp_2
Xsky130_fd_sc_hd__dfrtp_2_4 CF[5] x2/X CLKS VSSD VSSD VDDD VDDD SWN[5] sky130_fd_sc_hd__dfrtp_2
Xsky130_fd_sc_hd__dfrtp_2_5 CF[4] x2/X CLKS VSSD VSSD VDDD VDDD SWN[4] sky130_fd_sc_hd__dfrtp_2
Xsky130_fd_sc_hd__dfrtp_2_6 CF[7] x2/X CLKS VSSD VSSD VDDD VDDD SWN[7] sky130_fd_sc_hd__dfrtp_2
Xsky130_fd_sc_hd__dfrtp_2_7 CF[6] x2/X CLKS VSSD VSSD VDDD VDDD SWN[6] sky130_fd_sc_hd__dfrtp_2
Xsky130_fd_sc_hd__dfrtp_2_8 CF[9] x2/X CLKS VSSD VSSD VDDD VDDD SWN[9] sky130_fd_sc_hd__dfrtp_2
Xsky130_fd_sc_hd__dfrtp_2_9 CF[8] x2/X CLKS VSSD VSSD VDDD VDDD SWN[8] sky130_fd_sc_hd__dfrtp_2
.ends

.subckt sar CKO DOUT[0] DOUT[1] DOUT[2] DOUT[3] DOUT[4] DOUT[5] DOUT[6] DOUT[7] DOUT[8]
+ DOUT[9] CLKS CLKSB CLK EN VDDD CF[0] CF[1] CF[2] CF[3] CF[4] CF[5] CF[6] CF[7] CF[8]
+ CF[9] SWP[9] SWP[8] SWP[7] SWP[6] SWP[5] SWP[4] SWP[3] SWP[2] SWP[1] SWP[0] SWN[9]
+ SWN[8] SWN[7] SWN[6] SWN[5] SWN[4] SWN[3] SWN[2] SWN[1] SWN[0] COMP_P COMP_N VSSD
Xout_latch_0 out_latch_0/FINAL CLKS EN CKO DOUT[1] DOUT[2] DOUT[3] DOUT[4] DOUT[5]
+ DOUT[6] DOUT[7] DOUT[8] DOUT[9] SWP[0] SWP[1] SWP[2] SWP[3] SWP[4] SWP[5] SWP[6]
+ SWP[7] SWP[8] SWP[9] DOUT[0] VSSD VDDD VSSD VSSD out_latch
Xcyclic_flag_0 EN CLK CLKS out_latch_0/FINAL CF[0] CF[1] CF[2] CF[3] CF[4] CF[5] CF[6]
+ CF[7] CF[8] CF[9] VDDD VSSD cyclic_flag
Xauto_sampling_0 CLKSB CLKS CLK EN VSSD VDDD auto_sampling
Xcdac_ctrl_0 CLKS COMP_P COMP_N CF[0] CF[1] CF[3] CF[4] CF[5] CF[6] CF[7] CF[8] CF[9]
+ SWN[0] SWN[1] SWN[2] SWN[3] SWN[4] SWN[5] SWN[6] SWN[7] SWN[8] SWN[9] SWP[0] SWP[1]
+ SWP[2] SWP[3] SWP[4] SWP[5] SWP[6] SWP[7] SWP[8] SWP[9] CF[2] VDDD VSSD cdac_ctrl
.ends

.subckt sky130_fd_pr__pfet_01v8_R8XU9D a_n33_n397# a_n73_n300# a_15_n300# w_n211_n519#
X0 a_15_n300# a_n33_n397# a_n73_n300# w_n211_n519# sky130_fd_pr__pfet_01v8 ad=0.87 pd=6.58 as=0.87 ps=6.58 w=3 l=0.15
.ends

.subckt sky130_fd_pr__nfet_01v8_TGNW9T a_n73_n100# a_n33_n188# a_15_n100# a_n175_n274#
X0 a_15_n100# a_n33_n188# a_n73_n100# a_n175_n274# sky130_fd_pr__nfet_01v8 ad=0.29 pd=2.58 as=0.29 ps=2.58 w=1 l=0.15
.ends

.subckt sky130_fd_sc_hd__nand2_1 A B VGND VNB VPB VPWR Y
X0 VPWR A Y VPB sky130_fd_pr__pfet_01v8_hvt ad=0.26 pd=2.52 as=0.135 ps=1.27 w=1 l=0.15
X1 Y A a_113_47# VNB sky130_fd_pr__nfet_01v8 ad=0.169 pd=1.82 as=0.08775 ps=0.92 w=0.65 l=0.15
X2 a_113_47# B VGND VNB sky130_fd_pr__nfet_01v8 ad=0.08775 pd=0.92 as=0.169 ps=1.82 w=0.65 l=0.15
X3 Y B VPWR VPB sky130_fd_pr__pfet_01v8_hvt ad=0.135 pd=1.27 as=0.26 ps=2.52 w=1 l=0.15
.ends

.subckt phase_detector OUT OUTN INN INP VDD VSS
XXM1 INN VDD m1_n955_1466# VDD sky130_fd_pr__pfet_01v8_R8XU9D
XXM2 INP sky130_fd_sc_hd__nand2_1_0/B m1_n955_1466# VDD sky130_fd_pr__pfet_01v8_R8XU9D
XXM3 INP VDD m1_1443_1466# VDD sky130_fd_pr__pfet_01v8_R8XU9D
XXM4 INN m1_1443_1466# sky130_fd_sc_hd__nand2_1_1/A VDD sky130_fd_pr__pfet_01v8_R8XU9D
XXM5 sky130_fd_sc_hd__nand2_1_1/A VDD sky130_fd_sc_hd__nand2_1_0/B VDD sky130_fd_pr__pfet_01v8_R8XU9D
XXM6 m1_n814_412# sky130_fd_sc_hd__nand2_1_1/A sky130_fd_sc_hd__nand2_1_0/B VSS sky130_fd_pr__nfet_01v8_TGNW9T
XXM7 m1_n814_412# INP VSS VSS sky130_fd_pr__nfet_01v8_TGNW9T
XXM8 sky130_fd_sc_hd__nand2_1_0/B VDD sky130_fd_sc_hd__nand2_1_1/A VDD sky130_fd_pr__pfet_01v8_R8XU9D
XXM9 sky130_fd_sc_hd__nand2_1_1/A sky130_fd_sc_hd__nand2_1_0/B m1_1302_412# VSS sky130_fd_pr__nfet_01v8_TGNW9T
Xsky130_fd_sc_hd__nand2_1_0 OUTN sky130_fd_sc_hd__nand2_1_0/B VSS VSS VDD VDD OUT
+ sky130_fd_sc_hd__nand2_1
Xsky130_fd_sc_hd__nand2_1_1 sky130_fd_sc_hd__nand2_1_1/A OUT VSS VSS VDD VDD OUTN
+ sky130_fd_sc_hd__nand2_1
XXM10 m1_1302_412# INN VSS VSS sky130_fd_pr__nfet_01v8_TGNW9T
.ends

.subckt sky130_fd_pr__pfet_01v8_lvt_NZTZAV a_n1500_n697# a_1500_n600# a_n1558_n600#
+ w_n1696_n819#
X0 a_1500_n600# a_n1500_n697# a_n1558_n600# w_n1696_n819# sky130_fd_pr__pfet_01v8_lvt ad=1.74 pd=12.58 as=1.74 ps=12.58 w=6 l=15
.ends

.subckt sky130_fd_pr__nfet_01v8_lvt_PHPD3W a_n1500_n288# a_n1660_n374# a_1500_n200#
+ a_n1558_n200#
X0 a_1500_n200# a_n1500_n288# a_n1558_n200# a_n1660_n374# sky130_fd_pr__nfet_01v8_lvt ad=0.58 pd=4.58 as=0.58 ps=4.58 w=2 l=15
.ends

.subckt delay_element VSS VIP VIN IN OUT VDD
XXM1 IN m1_3080_n244# m1_n71_n563# VDD sky130_fd_pr__pfet_01v8_lvt_NZTZAV
XXM2 VIP VDD m1_3080_n244# VDD sky130_fd_pr__pfet_01v8_lvt_NZTZAV
XXM3 IN VSS VSS m1_n71_n563# sky130_fd_pr__nfet_01v8_lvt_PHPD3W
XXM6 m1_n71_n563# OUT VDD VDD sky130_fd_pr__pfet_01v8_lvt_NZTZAV
XXM7 VIN VSS m1_6365_n1437# VSS sky130_fd_pr__nfet_01v8_lvt_PHPD3W
XXM8 m1_n71_n563# VSS OUT m1_6365_n1437# sky130_fd_pr__nfet_01v8_lvt_PHPD3W
.ends

.subckt tdc outp outn vinn vinp vdda vssa start
Xsky130_fd_sc_hd__inv_8_0 delay_element_0/OUT vssa vssa vdda vdda phase_detector_0/INN
+ sky130_fd_sc_hd__inv_8
Xsky130_fd_sc_hd__inv_8_1 delay_element_1/OUT vssa vssa vdda vdda phase_detector_0/INP
+ sky130_fd_sc_hd__inv_8
Xphase_detector_0 outp outn phase_detector_0/INN phase_detector_0/INP vdda vssa phase_detector
Xdelay_element_0 vssa vinp vinn start delay_element_0/OUT vdda delay_element
Xdelay_element_1 vssa vinn vinp start delay_element_1/OUT vdda delay_element
.ends

.subckt sky130_fd_pr__pfet_01v8_XGSNAL a_n33_n397# a_n73_n300# a_15_n300# w_n211_n519#
X0 a_15_n300# a_n33_n397# a_n73_n300# w_n211_n519# sky130_fd_pr__pfet_01v8 ad=0.87 pd=6.58 as=0.87 ps=6.58 w=3 l=0.15
.ends

.subckt sky130_fd_pr__nfet_01v8_648S5X a_n73_n100# a_n33_n188# a_15_n100# a_n175_n274#
X0 a_15_n100# a_n33_n188# a_n73_n100# a_n175_n274# sky130_fd_pr__nfet_01v8 ad=0.29 pd=2.58 as=0.29 ps=2.58 w=1 l=0.15
.ends

.subckt sky130_fd_pr__cap_mim_m3_1_V2UT89 c1_n346_n1280# m3_n386_n1320#
X0 c1_n346_n1280# m3_n386_n1320# sky130_fd_pr__cap_mim_m3_1 l=2 w=2
X1 c1_n346_n1280# m3_n386_n1320# sky130_fd_pr__cap_mim_m3_1 l=2 w=2
X2 c1_n346_n1280# m3_n386_n1320# sky130_fd_pr__cap_mim_m3_1 l=2 w=2
X3 c1_n346_n1280# m3_n386_n1320# sky130_fd_pr__cap_mim_m3_1 l=2 w=2
.ends

.subckt sky130_fd_pr__nfet_01v8_RYGWKL a_50_n800# a_n108_n800# a_n50_n888# a_n210_n974#
X0 a_50_n800# a_n50_n888# a_n108_n800# a_n210_n974# sky130_fd_pr__nfet_01v8 ad=2.32 pd=16.58 as=2.32 ps=16.58 w=8 l=0.5
.ends

.subckt bsw_diff VDD CLKS CLKSB VIP VIN VCP VCN w_5554_n3232# w_5554_n6258# VSS
XXM12 a_6056_n5722# VDD li_6230_n5613# li_6230_n5613# sky130_fd_pr__pfet_01v8_XGSNAL
XXM14 m1_1021_n4233# CLKS a_6372_n5722# VSS sky130_fd_pr__nfet_01v8_648S5X
XXM13 a_6372_n5722# li_6230_n5613# a_6056_n5722# li_6230_n5613# sky130_fd_pr__pfet_01v8_XGSNAL
XXM15 VSS CLKSB m1_1021_n4233# VSS sky130_fd_pr__nfet_01v8_648S5X
XXM16 m1_1021_n4233# a_6056_n5722# a_6372_n5722# VSS sky130_fd_pr__nfet_01v8_648S5X
XXM17 a_6056_n5722# VDD m1_2102_n4137# VSS sky130_fd_pr__nfet_01v8_648S5X
XXM18 m1_2102_n4137# CLKSB VSS VSS sky130_fd_pr__nfet_01v8_648S5X
XXM19 m1_1021_n4233# a_6056_n5722# VIN VSS sky130_fd_pr__nfet_01v8_648S5X
XXM1 CLKS VDD a_6372_n2826# VDD sky130_fd_pr__pfet_01v8_XGSNAL
XXM2 a_6056_n2826# VDD li_6230_n2717# li_6230_n2717# sky130_fd_pr__pfet_01v8_XGSNAL
XXM3 a_6372_n2826# li_6230_n2717# a_6056_n2826# li_6230_n2717# sky130_fd_pr__pfet_01v8_XGSNAL
XXM4 m1_1021_n3713# CLKS a_6372_n2826# VSS sky130_fd_pr__nfet_01v8_648S5X
XXM5 VSS CLKSB m1_1021_n3713# VSS sky130_fd_pr__nfet_01v8_648S5X
XXM6 m1_1021_n3713# a_6056_n2826# a_6372_n2826# VSS sky130_fd_pr__nfet_01v8_648S5X
XXM7 a_6056_n2826# VDD m1_2102_n3719# VSS sky130_fd_pr__nfet_01v8_648S5X
XXM9 m1_1021_n3713# a_6056_n2826# VIP VSS sky130_fd_pr__nfet_01v8_648S5X
XXM8 m1_2102_n3719# CLKSB VSS VSS sky130_fd_pr__nfet_01v8_648S5X
XXC1 li_6230_n5613# m1_1021_n4233# sky130_fd_pr__cap_mim_m3_1_V2UT89
XXC2 li_6230_n2717# m1_1021_n3713# sky130_fd_pr__cap_mim_m3_1_V2UT89
XXM20 VCN VIN a_6056_n5722# VSS sky130_fd_pr__nfet_01v8_RYGWKL
XXM10 VCP VIP a_6056_n2826# VSS sky130_fd_pr__nfet_01v8_RYGWKL
XXM11 CLKS VDD a_6372_n5722# VDD sky130_fd_pr__pfet_01v8_XGSNAL
.ends

.subckt nooverlap_clk in clk0 clkb0 clk1 clkb1 vdda vssa
Xx1 in x9/A vssa vssa vdda vdda x4/A sky130_fd_sc_hd__nand2_1
Xx2 x8/A x3/Y vssa vssa vdda vdda x5/A sky130_fd_sc_hd__nand2_1
Xx3 in vssa vssa vdda vdda x3/Y sky130_fd_sc_hd__inv_1
Xx4 x4/A vssa vssa vdda vdda x6/A sky130_fd_sc_hd__inv_1
Xx5 x5/A vssa vssa vdda vdda x7/A sky130_fd_sc_hd__inv_1
Xx6 x6/A vssa vssa vdda vdda x8/A sky130_fd_sc_hd__inv_1
Xx7 x7/A vssa vssa vdda vdda x9/A sky130_fd_sc_hd__inv_1
Xx8 x8/A vssa vssa vdda vdda x8/Y sky130_fd_sc_hd__inv_4
Xx9 x9/A vssa vssa vdda vdda x9/Y sky130_fd_sc_hd__inv_4
Xx10 x8/Y vssa vssa vdda vdda clkb0 sky130_fd_sc_hd__inv_8
Xx11 x9/Y vssa vssa vdda vdda clkb1 sky130_fd_sc_hd__inv_8
Xx12 clkb0 vssa vssa vdda vdda clk0 sky130_fd_sc_hd__inv_8
Xx13 clkb1 vssa vssa vdda vdda clk1 sky130_fd_sc_hd__inv_8
.ends

.subckt sky130_fd_pr__pfet_01v8_TMY429 a_n50_n1051# a_n108_118# a_n50_21# a_50_n418#
+ a_50_118# a_n108_n418# a_n108_654# a_50_n954# a_n50_n515# a_50_654# w_n246_n1173#
+ a_n108_n954# a_n50_557#
X0 a_50_654# a_n50_557# a_n108_654# w_n246_n1173# sky130_fd_pr__pfet_01v8 ad=0.435 pd=3.58 as=0.435 ps=3.58 w=1.5 l=0.5
X1 a_50_118# a_n50_21# a_n108_118# w_n246_n1173# sky130_fd_pr__pfet_01v8 ad=0.435 pd=3.58 as=0.435 ps=3.58 w=1.5 l=0.5
X2 a_50_n954# a_n50_n1051# a_n108_n954# w_n246_n1173# sky130_fd_pr__pfet_01v8 ad=0.435 pd=3.58 as=0.435 ps=3.58 w=1.5 l=0.5
X3 a_50_n418# a_n50_n515# a_n108_n418# w_n246_n1173# sky130_fd_pr__pfet_01v8 ad=0.435 pd=3.58 as=0.435 ps=3.58 w=1.5 l=0.5
.ends

.subckt sky130_fd_pr__nfet_01v8_XHGLWN a_n50_n297# a_n50_21# a_n50_n615# a_50_n209#
+ a_50_n527# a_n210_n701# a_n108_n527# a_n108_n209# a_n108_109# a_n50_339# a_n108_427#
+ a_50_109# a_50_427#
X0 a_50_n209# a_n50_n297# a_n108_n209# a_n210_n701# sky130_fd_pr__nfet_01v8 ad=0.145 pd=1.58 as=0.145 ps=1.58 w=0.5 l=0.5
X1 a_50_109# a_n50_21# a_n108_109# a_n210_n701# sky130_fd_pr__nfet_01v8 ad=0.145 pd=1.58 as=0.145 ps=1.58 w=0.5 l=0.5
X2 a_50_n527# a_n50_n615# a_n108_n527# a_n210_n701# sky130_fd_pr__nfet_01v8 ad=0.145 pd=1.58 as=0.145 ps=1.58 w=0.5 l=0.5
X3 a_50_427# a_n50_339# a_n108_427# a_n210_n701# sky130_fd_pr__nfet_01v8 ad=0.145 pd=1.58 as=0.145 ps=1.58 w=0.5 l=0.5
.ends

.subckt tg_sw_4 swp swn in out vssa vdda
XXM1 swp in swp out out in in out swp out vdda in swp sky130_fd_pr__pfet_01v8_TMY429
XXM2 swn swn swn in in vssa out out out swn out in in sky130_fd_pr__nfet_01v8_XHGLWN
.ends

.subckt dac_sw_4 in ck ckb out vssa vdda
XXM1 in vdda in m1_577_n1818# m1_577_n1818# vdda vdda m1_577_n1818# in m1_577_n1818#
+ vdda vdda in sky130_fd_pr__pfet_01v8_TMY429
XXM2 ckb m1_577_n1818# ckb out out m1_577_n1818# m1_577_n1818# out ckb out vdda m1_577_n1818#
+ ckb sky130_fd_pr__pfet_01v8_TMY429
XXM3 ck ck ck m1_1455_n1827# m1_1455_n1827# vssa out out out ck out m1_1455_n1827#
+ m1_1455_n1827# sky130_fd_pr__nfet_01v8_XHGLWN
XXM4 in in in vssa vssa vssa m1_1455_n1827# m1_1455_n1827# m1_1455_n1827# in m1_1455_n1827#
+ vssa vssa sky130_fd_pr__nfet_01v8_XHGLWN
.ends

.subckt cdac_sw_4 cki bi vcm dac_out vssa vdda
Xx1 cki x3/ck x3/ckb x2/swn x2/swp vdda vssa nooverlap_clk
Xx2 x2/swp x2/swn vcm dac_out vssa vdda tg_sw_4
Xx3 bi x3/ck x3/ckb dac_out vssa vdda dac_sw_4
.ends

.subckt sky130_fd_pr__pfet_01v8_GN49S6 a_n108_3870# a_n50_n4267# a_50_2262# a_n50_3773#
+ a_50_n2026# a_50_n1490# a_n50_n1051# a_n108_118# a_50_2798# a_n50_n1587# a_n50_21#
+ a_n108_1726# a_50_n418# a_n50_1629# a_n50_n3731# a_50_n3098# a_n108_2262# a_n50_2165#
+ a_50_118# a_n108_n3634# a_n108_2798# a_n108_n4170# a_50_n2562# a_n108_n418# a_50_3334#
+ a_n50_n2123# a_n108_654# a_n108_n1490# a_n50_n2659# a_n108_n2026# a_50_n954# a_n50_n515#
+ a_n108_3334# a_n50_n3195# a_50_1190# a_n50_3237# a_50_654# w_n246_n4389# a_n108_n3098#
+ a_n108_n954# a_50_3870# a_50_n3634# a_n108_1190# a_n50_1093# a_n50_2701# a_50_n4170#
+ a_n108_n2562# a_n50_557# a_50_1726#
X0 a_50_n3634# a_n50_n3731# a_n108_n3634# w_n246_n4389# sky130_fd_pr__pfet_01v8 ad=0.435 pd=3.58 as=0.435 ps=3.58 w=1.5 l=0.5
X1 a_50_3334# a_n50_3237# a_n108_3334# w_n246_n4389# sky130_fd_pr__pfet_01v8 ad=0.435 pd=3.58 as=0.435 ps=3.58 w=1.5 l=0.5
X2 a_50_654# a_n50_557# a_n108_654# w_n246_n4389# sky130_fd_pr__pfet_01v8 ad=0.435 pd=3.58 as=0.435 ps=3.58 w=1.5 l=0.5
X3 a_50_n1490# a_n50_n1587# a_n108_n1490# w_n246_n4389# sky130_fd_pr__pfet_01v8 ad=0.435 pd=3.58 as=0.435 ps=3.58 w=1.5 l=0.5
X4 a_50_118# a_n50_21# a_n108_118# w_n246_n4389# sky130_fd_pr__pfet_01v8 ad=0.435 pd=3.58 as=0.435 ps=3.58 w=1.5 l=0.5
X5 a_50_n3098# a_n50_n3195# a_n108_n3098# w_n246_n4389# sky130_fd_pr__pfet_01v8 ad=0.435 pd=3.58 as=0.435 ps=3.58 w=1.5 l=0.5
X6 a_50_2798# a_n50_2701# a_n108_2798# w_n246_n4389# sky130_fd_pr__pfet_01v8 ad=0.435 pd=3.58 as=0.435 ps=3.58 w=1.5 l=0.5
X7 a_50_n954# a_n50_n1051# a_n108_n954# w_n246_n4389# sky130_fd_pr__pfet_01v8 ad=0.435 pd=3.58 as=0.435 ps=3.58 w=1.5 l=0.5
X8 a_50_1190# a_n50_1093# a_n108_1190# w_n246_n4389# sky130_fd_pr__pfet_01v8 ad=0.435 pd=3.58 as=0.435 ps=3.58 w=1.5 l=0.5
X9 a_50_n418# a_n50_n515# a_n108_n418# w_n246_n4389# sky130_fd_pr__pfet_01v8 ad=0.435 pd=3.58 as=0.435 ps=3.58 w=1.5 l=0.5
X10 a_50_n4170# a_n50_n4267# a_n108_n4170# w_n246_n4389# sky130_fd_pr__pfet_01v8 ad=0.435 pd=3.58 as=0.435 ps=3.58 w=1.5 l=0.5
X11 a_50_n2562# a_n50_n2659# a_n108_n2562# w_n246_n4389# sky130_fd_pr__pfet_01v8 ad=0.435 pd=3.58 as=0.435 ps=3.58 w=1.5 l=0.5
X12 a_50_2262# a_n50_2165# a_n108_2262# w_n246_n4389# sky130_fd_pr__pfet_01v8 ad=0.435 pd=3.58 as=0.435 ps=3.58 w=1.5 l=0.5
X13 a_50_1726# a_n50_1629# a_n108_1726# w_n246_n4389# sky130_fd_pr__pfet_01v8 ad=0.435 pd=3.58 as=0.435 ps=3.58 w=1.5 l=0.5
X14 a_50_n2026# a_n50_n2123# a_n108_n2026# w_n246_n4389# sky130_fd_pr__pfet_01v8 ad=0.435 pd=3.58 as=0.435 ps=3.58 w=1.5 l=0.5
X15 a_50_3870# a_n50_3773# a_n108_3870# w_n246_n4389# sky130_fd_pr__pfet_01v8 ad=0.435 pd=3.58 as=0.435 ps=3.58 w=1.5 l=0.5
.ends

.subckt sky130_fd_pr__nfet_01v8_GPU48F a_n108_n1481# a_n108_n1163# a_n50_n297# a_n50_n2205#
+ a_n50_n2523# a_50_2017# a_n50_n1887# a_n50_n1569# a_50_2335# a_n50_21# a_n50_1929#
+ a_50_n2117# a_n50_1293# a_50_1699# a_50_n2435# a_50_n1799# a_n50_n933# a_n50_n615#
+ a_n108_2017# a_50_n209# a_n108_2335# a_n50_n1251# a_50_n845# a_50_n527# a_n108_1699#
+ a_50_1063# a_n50_1611# a_50_1381# a_50_n1481# a_50_n1163# a_n210_n2609# a_n108_n527#
+ a_n108_n209# a_n108_109# a_n50_339# a_n50_657# a_n50_975# a_n108_n845# a_n108_427#
+ a_n108_745# a_n108_1063# a_n108_1381# a_n108_n2117# a_n108_n2435# a_n108_n1799#
+ a_50_109# a_50_427# a_50_745# a_n50_2247#
X0 a_50_1063# a_n50_975# a_n108_1063# a_n210_n2609# sky130_fd_pr__nfet_01v8 ad=0.145 pd=1.58 as=0.145 ps=1.58 w=0.5 l=0.5
X1 a_50_n209# a_n50_n297# a_n108_n209# a_n210_n2609# sky130_fd_pr__nfet_01v8 ad=0.145 pd=1.58 as=0.145 ps=1.58 w=0.5 l=0.5
X2 a_50_109# a_n50_21# a_n108_109# a_n210_n2609# sky130_fd_pr__nfet_01v8 ad=0.145 pd=1.58 as=0.145 ps=1.58 w=0.5 l=0.5
X3 a_50_n2435# a_n50_n2523# a_n108_n2435# a_n210_n2609# sky130_fd_pr__nfet_01v8 ad=0.145 pd=1.58 as=0.145 ps=1.58 w=0.5 l=0.5
X4 a_50_1699# a_n50_1611# a_n108_1699# a_n210_n2609# sky130_fd_pr__nfet_01v8 ad=0.145 pd=1.58 as=0.145 ps=1.58 w=0.5 l=0.5
X5 a_50_n1481# a_n50_n1569# a_n108_n1481# a_n210_n2609# sky130_fd_pr__nfet_01v8 ad=0.145 pd=1.58 as=0.145 ps=1.58 w=0.5 l=0.5
X6 a_50_n2117# a_n50_n2205# a_n108_n2117# a_n210_n2609# sky130_fd_pr__nfet_01v8 ad=0.145 pd=1.58 as=0.145 ps=1.58 w=0.5 l=0.5
X7 a_50_n1163# a_n50_n1251# a_n108_n1163# a_n210_n2609# sky130_fd_pr__nfet_01v8 ad=0.145 pd=1.58 as=0.145 ps=1.58 w=0.5 l=0.5
X8 a_50_n845# a_n50_n933# a_n108_n845# a_n210_n2609# sky130_fd_pr__nfet_01v8 ad=0.145 pd=1.58 as=0.145 ps=1.58 w=0.5 l=0.5
X9 a_50_2335# a_n50_2247# a_n108_2335# a_n210_n2609# sky130_fd_pr__nfet_01v8 ad=0.145 pd=1.58 as=0.145 ps=1.58 w=0.5 l=0.5
X10 a_50_745# a_n50_657# a_n108_745# a_n210_n2609# sky130_fd_pr__nfet_01v8 ad=0.145 pd=1.58 as=0.145 ps=1.58 w=0.5 l=0.5
X11 a_50_1381# a_n50_1293# a_n108_1381# a_n210_n2609# sky130_fd_pr__nfet_01v8 ad=0.145 pd=1.58 as=0.145 ps=1.58 w=0.5 l=0.5
X12 a_50_n527# a_n50_n615# a_n108_n527# a_n210_n2609# sky130_fd_pr__nfet_01v8 ad=0.145 pd=1.58 as=0.145 ps=1.58 w=0.5 l=0.5