** sch_path: /home/mthudaa/Documents/UNIC-CASS-TSAR-ADC-ITS/xschem/adc_tb.sch
**.subckt adc_tb
VS VSSA GND 0
VDA VDDA VSSA 1.8
VDD VDDD VSSD 1.8
VC VCM VSSR 0.9
VSS1 net2 net1 SIN(0 0.9 1k)
VSS2 net3 net1 SIN(0 -0.9 1k)
VSS3 net1 VSSR 0.9
VCLK CLK VSSD PULSE(0 1.8 10n 50p 50p 1u 2u)
x1 VDDR VDDA VDDD VCM EN CLK VIP VIN VSSR VSSA VSSD DOUT[0] DOUT[1] DOUT[2] DOUT[3] DOUT[4] DOUT[5] DOUT[6] DOUT[7] DOUT[8]
+ DOUT[9] CKO COMP_P COMP_N 10b_adc
R1 VIP net2 50 m=1
R2 VIN net3 50 m=1
VS1 VSSD GND 0
VS2 VSSR GND 0
VDR VDDR VSSR 1.8
VCLK1 EN VSSD PWL(0 0, 1u 0, 1.01u 1.8)
**** begin user architecture code

** opencircuitdesign pdks install
* .lib /usr/local/share/pdk/sky130A/libs.tech/ngspice/sky130.lib.spice tt
.include /usr/local/share/pdk/sky130A/libs.ref/sky130_fd_sc_hd/spice/sky130_fd_sc_hd.spice



.option wnflag=0
.option savecurrents
.options acct list
.options method=trapezoid
.options reltol=1e-3 abstol=1e-4
.options maxstep=10n
.options minbreak=1n
.options solver=iterative
.control
global netlist_dir .
set wr_singlescale
save
+ clk
+ vip
+ vin
+ x1.vcp
+ x1.vcn
+ x1.comp_p
+ x1.clks
+ 'dout[0]'
+ 'dout[1]'
+ 'dout[2]'
+ 'dout[3]'
+ 'dout[4]'
+ 'dout[5]'
+ 'dout[6]'
+ 'dout[7]'
+ 'dout[8]'
+ 'dout[9]'
+ cko
tran 10n 60u
remzerovec
write adc_tb.raw
.endc

.lib /usr/local/share/pdk/sky130A/libs.tech/ngspice/sky130.lib.spice tt
**** end user architecture code
**.ends

* expanding   symbol:  10b_adc.sym # of pins=15
** sym_path: /home/mthudaa/Documents/UNIC-CASS-TSAR-ADC-ITS/xschem/10b_adc.sym
** sch_path: /home/mthudaa/Documents/UNIC-CASS-TSAR-ADC-ITS/xschem/10b_adc.sch
.subckt 10b_adc VDDR VDDA VDDD VCM EN CLK VIP VIN VSSR VSSA VSSD DOUT[0] DOUT[1] DOUT[2] DOUT[3] DOUT[4] DOUT[5] DOUT[6] DOUT[7]
+ DOUT[8] DOUT[9] CKO COMP_P COMP_N
*.ipin VDDA
*.ipin VDDD
*.ipin VCM
*.ipin CLK
*.ipin VIP
*.ipin VIN
*.ipin VSSA
*.ipin VSSD
*.opin DOUT[0],DOUT[1],DOUT[2],DOUT[3],DOUT[4],DOUT[5],DOUT[6],DOUT[7],DOUT[8],DOUT[9]
*.opin CKO
*.ipin VSSR
*.ipin VDDR
*.ipin EN
*.opin COMP_P
*.opin COMP_N
x2 VDDA CLKSB CLKS VIP VIN VSSA VCP VCN th_sw
x4 CF[0] CF[1] CF[2] CF[3] CF[4] CF[5] CF[6] CF[7] CF[8] CF[9] CKO CLK CLKS
+ CLKSB COMP_N COMP_P DOUT[0] DOUT[1] DOUT[2] DOUT[3] DOUT[4] DOUT[5] DOUT[6] DOUT[7]
+ DOUT[8] DOUT[9] EN SWN[0] SWN[1] SWN[2] SWN[3] SWN[4] SWN[5] SWN[6] SWN[7] SWN[8]
+ SWN[9] SWP[0] SWP[1] SWP[2] SWP[3] SWP[4] SWP[5] SWP[6] SWP[7] SWP[8] SWP[9] VDDD
+ VSSD VDDD VSSD sar
x1 VDDR CF[0] CF[1] CF[2] CF[3] CF[4] CF[5] CF[6] CF[7] CF[8] CF[9] SWP[0] SWP[1] SWP[2] SWP[3] SWP[4] SWP[5] SWP[6] SWP[7] SWP[8]
+ SWP[9] SWN[0] SWN[1] SWN[2] SWN[3] SWN[4] SWN[5] SWN[6] SWN[7] SWN[8] SWN[9] VCM VSSR VCP VCN cdac_10b
x3 VDDA CLK VCP VCN VSSA COMP_P COMP_N tdc
.ends


* expanding   symbol:  th_sw.sym # of pins=8
** sym_path: /home/mthudaa/Documents/UNIC-CASS-TSAR-ADC-ITS/xschem/th_sw.sym
** sch_path: /home/mthudaa/Documents/UNIC-CASS-TSAR-ADC-ITS/xschem/th_sw.sch
.subckt th_sw VDDA CLKS CLKSB VIP VIN VSSA VCP VCN
*.ipin VDDA
*.ipin CLKS
*.ipin CLKSB
*.ipin VIP
*.ipin VIN
*.ipin VSSA
*.iopin VCP
*.iopin VCN
x1 VDDA CLKS CLKSB VIP VSSA VCP bsw
x2 VDDA CLKS CLKSB VIN VSSA VCN bsw
.ends


* expanding   symbol:  sar.sym # of pins=13
** sym_path: /home/mthudaa/Documents/UNIC-CASS-TSAR-ADC-ITS/xschem/sar.sym
** sch_path: /home/mthudaa/Documents/UNIC-CASS-TSAR-ADC-ITS/xschem/sar.sch
* NGSPICE file created from sar.ext - technology: sky130A


.subckt sar CF[0] CF[1] CF[2] CF[3] CF[4] CF[5] CF[6] CF[7] CF[8] CF[9] CKO CLK CLKS
+ CLKSB COMP_N COMP_P DOUT[0] DOUT[1] DOUT[2] DOUT[3] DOUT[4] DOUT[5] DOUT[6] DOUT[7]
+ DOUT[8] DOUT[9] EN SWN[0] SWN[1] SWN[2] SWN[3] SWN[4] SWN[5] SWN[6] SWN[7] SWN[8]
+ SWN[9] SWP[0] SWP[1] SWP[2] SWP[3] SWP[4] SWP[5] SWP[6] SWP[7] SWP[8] SWP[9] VDDD
+ VSSD
XTAP_TAPCELL_ROW_9_148 VSSD VDDD sky130_fd_sc_hd__tapvpwrvgnd_1
XFILLER_0_9_499 VSSD VSSD VDDD VDDD sky130_fd_sc_hd__decap_4
XFILLER_0_9_477 VDDD VSSD VDDD VSSD sky130_ef_sc_hd__decap_12
XFILLER_0_9_433 VDDD VSSD VDDD VSSD sky130_ef_sc_hd__decap_12
XTAP_TAPCELL_ROW_9_137 VSSD VDDD sky130_fd_sc_hd__tapvpwrvgnd_1
XFILLER_0_3_609 VSSD VSSD VDDD VDDD sky130_fd_sc_hd__decap_6
XTAP_TAPCELL_ROW_6_107 VSSD VDDD sky130_fd_sc_hd__tapvpwrvgnd_1
XFILLER_0_6_469 VSSD VSSD VDDD VDDD sky130_fd_sc_hd__decap_6
XFILLER_0_6_277 VDDD VSSD VDDD VSSD sky130_ef_sc_hd__decap_12
XFILLER_0_3_417 VDDD VSSD VDDD VSSD sky130_ef_sc_hd__decap_12
XFILLER_0_0_29 VDDD VSSD VDDD VSSD sky130_ef_sc_hd__decap_12
XFILLER_0_3_225 VDDD VSSD VDDD VSSD sky130_ef_sc_hd__decap_12
XFILLER_0_7_597 VDDD VSSD VDDD VSSD sky130_ef_sc_hd__decap_12
XFILLER_0_7_553 VSSD VSSD VDDD VDDD sky130_fd_sc_hd__decap_6
XTAP_TAPCELL_ROW_5_89 VSSD VDDD sky130_fd_sc_hd__tapvpwrvgnd_1
XFILLER_0_4_589 VDDD VSSD VDDD VSSD sky130_ef_sc_hd__decap_12
XFILLER_0_4_545 VDDD VSSD VDDD VSSD sky130_ef_sc_hd__decap_12
XFILLER_0_4_501 VDDD VSSD VDDD VSSD sky130_ef_sc_hd__decap_12
XFILLER_0_7_361 VDDD VSSD VDDD VSSD sky130_ef_sc_hd__decap_12
Xoutput7 net7 VSSD VSSD VDDD VDDD CF[5] sky130_fd_sc_hd__clkbuf_4
Xx4.x2_8 net10 x4.COMP_BUF_N net46 VSSD VSSD VDDD VDDD net33 sky130_fd_sc_hd__dfrtp_1
Xoutput31 net31 VSSD VSSD VDDD VDDD SWN[6] sky130_fd_sc_hd__buf_2
Xoutput20 net20 VSSD VSSD VDDD VDDD DOUT[5] sky130_fd_sc_hd__buf_2
Xoutput42 net42 VSSD VSSD VDDD VDDD SWP[7] sky130_fd_sc_hd__buf_2
XTAP_TAPCELL_ROW_2_57 VSSD VDDD sky130_fd_sc_hd__tapvpwrvgnd_1
XTAP_TAPCELL_ROW_9_149 VSSD VDDD sky130_fd_sc_hd__tapvpwrvgnd_1
XFILLER_0_9_489 VSSD VSSD VDDD VDDD sky130_fd_sc_hd__decap_4
XFILLER_0_9_445 VSSD VSSD VDDD VDDD sky130_fd_sc_hd__decap_3
XTAP_TAPCELL_ROW_9_138 VSSD VDDD sky130_fd_sc_hd__tapvpwrvgnd_1
XFILLER_0_2_109 VSSD VSSD VDDD VDDD sky130_fd_sc_hd__decap_4
XFILLER_0_3_429 VDDD VSSD VDDD VSSD sky130_ef_sc_hd__decap_12
XFILLER_0_6_289 VDDD VSSD VDDD VSSD sky130_ef_sc_hd__decap_12
XPHY_EDGE_ROW_4_Left_14 VSSD VSSD VDDD VDDD sky130_fd_sc_hd__decap_3
XFILLER_0_4_83 VSSD VSSD VDDD VDDD sky130_fd_sc_hd__fill_1
Xx5.x1_0 net45 net35 net52 VSSD VSSD VDDD VDDD net15 sky130_fd_sc_hd__dfrtp_1
XFILLER_0_3_237 VDDD VSSD VDDD VSSD sky130_ef_sc_hd__decap_12
XFILLER_0_4_557 VDDD VSSD VDDD VSSD sky130_ef_sc_hd__decap_12
XFILLER_0_4_513 VDDD VSSD VDDD VSSD sky130_ef_sc_hd__decap_12
Xhold20 net4 VSSD VSSD VDDD VDDD net73 sky130_fd_sc_hd__dlygate4sd3_1
XFILLER_0_7_373 VDDD VSSD VDDD VSSD sky130_ef_sc_hd__decap_12
XFILLER_0_6_29 VDDD VSSD VDDD VSSD sky130_ef_sc_hd__decap_12
XFILLER_0_1_505 VDDD VSSD VDDD VSSD sky130_ef_sc_hd__decap_12
XPHY_EDGE_ROW_6_Right_6 VSSD VSSD VDDD VDDD sky130_fd_sc_hd__decap_3
XFILLER_0_4_365 VDDD VSSD VDDD VSSD sky130_ef_sc_hd__decap_12
XFILLER_0_4_321 VDDD VSSD VDDD VSSD sky130_ef_sc_hd__decap_12
Xoutput8 net8 VSSD VSSD VDDD VDDD CF[6] sky130_fd_sc_hd__clkbuf_4
Xoutput10 net10 VSSD VSSD VDDD VDDD CF[8] sky130_fd_sc_hd__clkbuf_4
XFILLER_0_5_107 VSSD VSSD VDDD VDDD sky130_fd_sc_hd__decap_4
Xx4.x2_9 net11 x4.COMP_BUF_N net48 VSSD VSSD VDDD VDDD net34 sky130_fd_sc_hd__dfrtp_1
Xoutput32 net32 VSSD VSSD VDDD VDDD SWN[7] sky130_fd_sc_hd__buf_2
Xoutput21 net21 VSSD VSSD VDDD VDDD DOUT[6] sky130_fd_sc_hd__buf_2
Xoutput43 net43 VSSD VSSD VDDD VDDD SWP[8] sky130_fd_sc_hd__buf_2
XTAP_TAPCELL_ROW_2_58 VSSD VDDD sky130_fd_sc_hd__tapvpwrvgnd_1
XTAP_TAPCELL_ROW_9_139 VSSD VDDD sky130_fd_sc_hd__tapvpwrvgnd_1
XFILLER_0_3_19 VDDD VSSD VDDD VSSD sky130_ef_sc_hd__decap_12
XFILLER_0_9_29 VDDD VSSD VDDD VSSD sky130_ef_sc_hd__decap_12
Xx5.x1_1 net45 net36 net50 VSSD VSSD VDDD VDDD net16 sky130_fd_sc_hd__dfrtp_1
XFILLER_0_3_249 VDDD VSSD VDDD VSSD sky130_ef_sc_hd__decap_12
XFILLER_0_4_569 VDDD VSSD VDDD VSSD sky130_ef_sc_hd__decap_12
XFILLER_0_4_525 VSSD VSSD VDDD VDDD sky130_fd_sc_hd__decap_6
XFILLER_0_7_385 VSSD VSSD VDDD VDDD sky130_fd_sc_hd__decap_6
Xhold21 net3 VSSD VSSD VDDD VDDD net74 sky130_fd_sc_hd__dlygate4sd3_1
Xhold10 x1.net9 VSSD VSSD VDDD VDDD net63 sky130_fd_sc_hd__dlygate4sd3_1
XFILLER_0_6_19 VSSD VSSD VDDD VDDD sky130_fd_sc_hd__decap_8
XFILLER_0_4_377 VDDD VSSD VDDD VSSD sky130_ef_sc_hd__decap_12
XFILLER_0_4_333 VDDD VSSD VDDD VSSD sky130_ef_sc_hd__decap_12
XFILLER_0_0_561 VDDD VSSD VDDD VSSD sky130_ef_sc_hd__decap_12
Xoutput9 net9 VSSD VSSD VDDD VDDD CF[7] sky130_fd_sc_hd__clkbuf_4
Xoutput11 net11 VSSD VSSD VDDD VDDD CF[9] sky130_fd_sc_hd__clkbuf_4
Xoutput33 net33 VSSD VSSD VDDD VDDD SWN[8] sky130_fd_sc_hd__buf_2
Xoutput22 net22 VSSD VSSD VDDD VDDD DOUT[7] sky130_fd_sc_hd__buf_2
Xoutput44 net44 VSSD VSSD VDDD VDDD SWP[9] sky130_fd_sc_hd__buf_2
XTAP_TAPCELL_ROW_2_59 VSSD VDDD sky130_fd_sc_hd__tapvpwrvgnd_1
XFILLER_0_0_391 VSSD VSSD VDDD VDDD sky130_fd_sc_hd__fill_1
XFILLER_0_4_141 VSSD VSSD VDDD VDDD sky130_fd_sc_hd__decap_3
XFILLER_0_2_601 VDDD VSSD VDDD VSSD sky130_ef_sc_hd__decap_12
XFILLER_0_9_299 VSSD VSSD VDDD VDDD sky130_fd_sc_hd__decap_8
XFILLER_0_5_461 VDDD VSSD VDDD VSSD sky130_ef_sc_hd__decap_12
XFILLER_0_1_166 VSSD VSSD VDDD VDDD sky130_fd_sc_hd__fill_2
XFILLER_0_1_144 VSSD VSSD VDDD VDDD sky130_fd_sc_hd__fill_2
XFILLER_0_2_475 VSSD VSSD VDDD VDDD sky130_fd_sc_hd__fill_1
XFILLER_0_4_41 VDDD VSSD VDDD VSSD sky130_ef_sc_hd__decap_12
Xx5.x1_2 net45 net37 net50 VSSD VSSD VDDD VDDD net17 sky130_fd_sc_hd__dfrtp_1
XFILLER_0_2_261 VSSD VSSD VDDD VDDD sky130_fd_sc_hd__fill_1
XFILLER_0_2_283 VDDD VSSD VDDD VSSD sky130_ef_sc_hd__decap_12
XFILLER_0_8_309 VDDD VSSD VDDD VSSD sky130_ef_sc_hd__decap_12
Xhold11 x1.net6 VSSD VSSD VDDD VDDD net64 sky130_fd_sc_hd__dlygate4sd3_1
XFILLER_0_4_389 VDDD VSSD VDDD VSSD sky130_ef_sc_hd__decap_12
XFILLER_0_4_345 VDDD VSSD VDDD VSSD sky130_ef_sc_hd__decap_12
XFILLER_0_0_573 VDDD VSSD VDDD VSSD sky130_ef_sc_hd__decap_12
XFILLER_0_4_301 VSSD VSSD VDDD VDDD sky130_fd_sc_hd__decap_6
Xoutput12 net45 VSSD VSSD VDDD VDDD CKO sky130_fd_sc_hd__buf_2
Xoutput34 net34 VSSD VSSD VDDD VDDD SWN[9] sky130_fd_sc_hd__clkbuf_4
Xoutput23 net23 VSSD VSSD VDDD VDDD DOUT[8] sky130_fd_sc_hd__buf_2
XFILLER_0_1_337 VDDD VSSD VDDD VSSD sky130_ef_sc_hd__decap_12
XFILLER_0_9_459 VDDD VSSD VDDD VSSD sky130_ef_sc_hd__decap_12
XFILLER_0_4_164 VSSD VSSD VDDD VDDD sky130_fd_sc_hd__decap_4
XFILLER_0_2_613 VDDD VSSD VDDD VSSD sky130_ef_sc_hd__decap_12
XTAP_TAPCELL_ROW_3_70 VSSD VDDD sky130_fd_sc_hd__tapvpwrvgnd_1
XFILLER_0_5_473 VDDD VSSD VDDD VSSD sky130_ef_sc_hd__decap_12
XFILLER_0_2_421 VDDD VSSD VDDD VSSD sky130_ef_sc_hd__decap_12
XFILLER_0_5_281 VDDD VSSD VDDD VSSD sky130_ef_sc_hd__decap_12
XFILLER_0_4_53 VSSD VSSD VDDD VDDD sky130_fd_sc_hd__decap_6
Xx5.x1_3 net45 net38 net52 VSSD VSSD VDDD VDDD net18 sky130_fd_sc_hd__dfrtp_1
XPHY_EDGE_ROW_8_Left_18 VSSD VSSD VDDD VDDD sky130_fd_sc_hd__decap_3
XFILLER_0_2_251 VSSD VSSD VDDD VDDD sky130_fd_sc_hd__fill_1
XFILLER_0_2_295 VDDD VSSD VDDD VSSD sky130_ef_sc_hd__decap_12
Xclkload0 clknet_1_0__leaf_CLK VSSD VSSD VDDD VDDD clkload0/Y sky130_fd_sc_hd__bufinv_16
Xhold12 x1.net11 VSSD VSSD VDDD VDDD net65 sky130_fd_sc_hd__dlygate4sd3_1
XFILLER_0_8_107 VSSD VSSD VDDD VDDD sky130_fd_sc_hd__decap_6
XFILLER_0_4_357 VSSD VSSD VDDD VDDD sky130_fd_sc_hd__decap_6
Xoutput35 net35 VSSD VSSD VDDD VDDD SWP[0] sky130_fd_sc_hd__buf_2
Xoutput13 net47 VSSD VSSD VDDD VDDD CLKS sky130_fd_sc_hd__buf_2
XFILLER_0_0_585 VSSD VSSD VDDD VDDD sky130_fd_sc_hd__decap_3
Xoutput24 net24 VSSD VSSD VDDD VDDD DOUT[9] sky130_fd_sc_hd__buf_2
XFILLER_0_1_349 VSSD VSSD VDDD VDDD sky130_fd_sc_hd__fill_2
XFILLER_0_9_449 VSSD VSSD VDDD VDDD sky130_fd_sc_hd__decap_4
XFILLER_0_9_405 VSSD VSSD VDDD VDDD sky130_fd_sc_hd__decap_8
XFILLER_0_7_31 VSSD VSSD VDDD VDDD sky130_fd_sc_hd__decap_4
XFILLER_0_0_393 VDDD VSSD VDDD VSSD sky130_ef_sc_hd__decap_12
XTAP_TAPCELL_ROW_8_120 VSSD VDDD sky130_fd_sc_hd__tapvpwrvgnd_1
XFILLER_0_6_419 VSSD VSSD VDDD VDDD sky130_fd_sc_hd__fill_1
XFILLER_0_1_113 VSSD VSSD VDDD VDDD sky130_fd_sc_hd__decap_3
XTAP_TAPCELL_ROW_3_71 VSSD VDDD sky130_fd_sc_hd__tapvpwrvgnd_1
XFILLER_0_9_279 VSSD VSSD VDDD VDDD sky130_fd_sc_hd__fill_1
XFILLER_0_5_485 VDDD VSSD VDDD VSSD sky130_ef_sc_hd__decap_12
XFILLER_0_5_441 VSSD VSSD VDDD VDDD sky130_fd_sc_hd__decap_6
XFILLER_0_8_290 VDDD VSSD VDDD VSSD sky130_ef_sc_hd__decap_12
Xclkbuf_1_1__f_CLK clknet_0_CLK VSSD VSSD VDDD VDDD clknet_1_1__leaf_CLK sky130_fd_sc_hd__clkbuf_16
XFILLER_0_5_293 VSSD VSSD VDDD VDDD sky130_fd_sc_hd__decap_8
XFILLER_0_2_433 VDDD VSSD VDDD VSSD sky130_ef_sc_hd__decap_12
XFILLER_0_2_477 VDDD VSSD VDDD VSSD sky130_ef_sc_hd__decap_12
Xx5.x1_4 net45 net39 net52 VSSD VSSD VDDD VDDD net19 sky130_fd_sc_hd__dfrtp_1
XFILLER_0_7_503 VSSD VSSD VDDD VDDD sky130_fd_sc_hd__fill_1
XFILLER_0_1_55 VSSD VSSD VDDD VDDD sky130_fd_sc_hd__fill_1
XFILLER_0_1_11 VDDD VSSD VDDD VSSD sky130_ef_sc_hd__decap_12
Xhold13 net10 VSSD VSSD VDDD VDDD net66 sky130_fd_sc_hd__dlygate4sd3_1
XFILLER_0_3_561 VDDD VSSD VDDD VSSD sky130_ef_sc_hd__decap_12
XFILLER_0_7_174 VSSD VSSD VDDD VDDD sky130_fd_sc_hd__fill_2
Xoutput36 net36 VSSD VSSD VDDD VDDD SWP[1] sky130_fd_sc_hd__buf_2
Xoutput14 net14 VSSD VSSD VDDD VDDD CLKSB sky130_fd_sc_hd__clkbuf_4
Xoutput25 net25 VSSD VSSD VDDD VDDD SWN[0] sky130_fd_sc_hd__buf_2
XFILLER_0_3_391 VSSD VSSD VDDD VDDD sky130_fd_sc_hd__fill_1
XFILLER_0_0_361 VSSD VSSD VDDD VDDD sky130_fd_sc_hd__decap_3
XTAP_TAPCELL_ROW_8_121 VSSD VDDD sky130_fd_sc_hd__tapvpwrvgnd_1
XFILLER_0_1_169 VDDD VSSD VDDD VSSD sky130_ef_sc_hd__decap_12
XFILLER_0_1_136 VSSD VSSD VDDD VDDD sky130_fd_sc_hd__decap_8
XTAP_TAPCELL_ROW_3_72 VSSD VDDD sky130_fd_sc_hd__tapvpwrvgnd_1
XFILLER_0_9_225 VDDD VSSD VDDD VSSD sky130_ef_sc_hd__decap_12
XFILLER_0_5_497 VSSD VSSD VDDD VDDD sky130_fd_sc_hd__decap_6
XFILLER_0_2_401 VDDD VSSD VDDD VSSD sky130_ef_sc_hd__decap_12
XFILLER_0_2_445 VDDD VSSD VDDD VSSD sky130_ef_sc_hd__decap_12
XFILLER_0_2_489 VDDD VSSD VDDD VSSD sky130_ef_sc_hd__decap_12
Xx5.x1_5 net45 net40 net53 VSSD VSSD VDDD VDDD net20 sky130_fd_sc_hd__dfrtp_1
Xx5.x1 x3.FINAL net48 VSSD VSSD VDDD VDDD net12 sky130_fd_sc_hd__and2_1
XFILLER_0_7_559 VSSD VSSD VDDD VDDD sky130_fd_sc_hd__fill_1
XTAP_TAPCELL_ROW_0_40 VSSD VDDD sky130_fd_sc_hd__tapvpwrvgnd_1
XFILLER_0_2_253 VSSD VSSD VDDD VDDD sky130_fd_sc_hd__decap_8
XFILLER_0_6_581 VSSD VSSD VDDD VDDD sky130_fd_sc_hd__decap_6
Xhold14 net9 VSSD VSSD VDDD VDDD net67 sky130_fd_sc_hd__dlygate4sd3_1
XFILLER_0_1_89 VSSD VSSD VDDD VDDD sky130_fd_sc_hd__decap_3
XFILLER_0_1_23 VDDD VSSD VDDD VSSD sky130_ef_sc_hd__decap_12
XFILLER_0_3_573 VDDD VSSD VDDD VSSD sky130_ef_sc_hd__decap_12
Xoutput37 net37 VSSD VSSD VDDD VDDD SWP[2] sky130_fd_sc_hd__buf_2
Xoutput26 net26 VSSD VSSD VDDD VDDD SWN[1] sky130_fd_sc_hd__buf_2
Xoutput15 net15 VSSD VSSD VDDD VDDD DOUT[0] sky130_fd_sc_hd__buf_2
XPHY_EDGE_ROW_1_Right_1 VSSD VSSD VDDD VDDD sky130_fd_sc_hd__decap_3
XTAP_TAPCELL_ROW_8_122 VSSD VDDD sky130_fd_sc_hd__tapvpwrvgnd_1
XTAP_TAPCELL_ROW_3_73 VSSD VDDD sky130_fd_sc_hd__tapvpwrvgnd_1
XFILLER_0_9_259 VDDD VSSD VDDD VSSD sky130_ef_sc_hd__decap_12
XFILLER_0_9_237 VDDD VSSD VDDD VSSD sky130_ef_sc_hd__decap_12
XFILLER_0_0_181 VDDD VSSD VDDD VSSD sky130_ef_sc_hd__decap_12
XFILLER_0_2_413 VSSD VSSD VDDD VDDD sky130_fd_sc_hd__decap_6
XFILLER_0_2_457 VDDD VSSD VDDD VSSD sky130_ef_sc_hd__decap_12
XFILLER_0_7_505 VDDD VSSD VDDD VSSD sky130_ef_sc_hd__decap_12
Xfanout50 net52 VSSD VSSD VDDD VDDD net50 sky130_fd_sc_hd__clkbuf_4
XTAP_TAPCELL_ROW_0_30 VSSD VDDD sky130_fd_sc_hd__tapvpwrvgnd_1
Xx5.x1_6 net45 net41 net53 VSSD VSSD VDDD VDDD net21 sky130_fd_sc_hd__dfrtp_1
XTAP_TAPCELL_ROW_0_41 VSSD VDDD sky130_fd_sc_hd__tapvpwrvgnd_1
XFILLER_0_2_221 VSSD VSSD VDDD VDDD sky130_fd_sc_hd__fill_1
XFILLER_0_7_335 VSSD VSSD VDDD VDDD sky130_fd_sc_hd__fill_1
XFILLER_0_1_57 VDDD VSSD VDDD VSSD sky130_ef_sc_hd__decap_12
XFILLER_0_1_35 VDDD VSSD VDDD VSSD sky130_ef_sc_hd__decap_12
XFILLER_0_3_541 VDDD VSSD VDDD VSSD sky130_ef_sc_hd__decap_12
XFILLER_0_3_585 VDDD VSSD VDDD VSSD sky130_ef_sc_hd__decap_12
Xhold15 net8 VSSD VSSD VDDD VDDD net68 sky130_fd_sc_hd__dlygate4sd3_1
XFILLER_0_0_533 VDDD VSSD VDDD VSSD sky130_ef_sc_hd__decap_12
Xoutput38 net38 VSSD VSSD VDDD VDDD SWP[3] sky130_fd_sc_hd__buf_2
Xoutput27 net27 VSSD VSSD VDDD VDDD SWN[2] sky130_fd_sc_hd__buf_2
Xoutput16 net16 VSSD VSSD VDDD VDDD DOUT[1] sky130_fd_sc_hd__buf_2
XFILLER_0_3_393 VDDD VSSD VDDD VSSD sky130_ef_sc_hd__decap_12
XFILLER_0_9_419 VSSD VSSD VDDD VDDD sky130_fd_sc_hd__fill_1
XTAP_TAPCELL_ROW_8_123 VSSD VDDD sky130_fd_sc_hd__tapvpwrvgnd_1
XTAP_TAPCELL_ROW_3_74 VSSD VDDD sky130_fd_sc_hd__tapvpwrvgnd_1
XFILLER_0_9_249 VSSD VSSD VDDD VDDD sky130_fd_sc_hd__decap_3
Xx1.x21 clknet_1_1__leaf_CLK net60 net50 VSSD VSSD VDDD VDDD x1.TRIG1 sky130_fd_sc_hd__dfrtp_1
XFILLER_0_0_193 VSSD VSSD VDDD VDDD sky130_fd_sc_hd__decap_3
XFILLER_0_2_469 VSSD VSSD VDDD VDDD sky130_fd_sc_hd__decap_6
XFILLER_0_4_79 VSSD VSSD VDDD VDDD sky130_fd_sc_hd__decap_4
Xfanout51 net52 VSSD VSSD VDDD VDDD net51 sky130_fd_sc_hd__dlymetal6s2s_1
XTAP_TAPCELL_ROW_0_20 VSSD VDDD sky130_fd_sc_hd__tapvpwrvgnd_1
XTAP_TAPCELL_ROW_0_31 VSSD VDDD sky130_fd_sc_hd__tapvpwrvgnd_1
Xx5.x1_7 net45 net42 net53 VSSD VSSD VDDD VDDD net22 sky130_fd_sc_hd__dfrtp_1
XFILLER_0_7_517 VDDD VSSD VDDD VSSD sky130_ef_sc_hd__decap_12
XFILLER_0_1_69 VDDD VSSD VDDD VSSD sky130_ef_sc_hd__decap_12
XFILLER_0_1_47 VSSD VSSD VDDD VDDD sky130_fd_sc_hd__decap_8
XFILLER_0_3_553 VSSD VSSD VDDD VDDD sky130_fd_sc_hd__decap_6
Xhold16 net7 VSSD VSSD VDDD VDDD net69 sky130_fd_sc_hd__dlygate4sd3_1
XFILLER_0_3_597 VDDD VSSD VDDD VSSD sky130_ef_sc_hd__decap_12
XFILLER_0_0_589 VDDD VSSD VDDD VSSD sky130_ef_sc_hd__decap_12
XFILLER_0_8_601 VDDD VSSD VDDD VSSD sky130_ef_sc_hd__decap_12
Xoutput39 net39 VSSD VSSD VDDD VDDD SWP[4] sky130_fd_sc_hd__buf_2
Xoutput28 net28 VSSD VSSD VDDD VDDD SWN[3] sky130_fd_sc_hd__buf_2
Xoutput17 net17 VSSD VSSD VDDD VDDD DOUT[2] sky130_fd_sc_hd__buf_2
XFILLER_0_3_361 VDDD VSSD VDDD VSSD sky130_ef_sc_hd__decap_12
XFILLER_0_7_57 VSSD VSSD VDDD VDDD sky130_fd_sc_hd__fill_2
XFILLER_0_7_35 VSSD VSSD VDDD VDDD sky130_fd_sc_hd__fill_1
XFILLER_0_5_615 VSSD VSSD VDDD VDDD sky130_fd_sc_hd__fill_1
XFILLER_0_0_375 VDDD VSSD VDDD VSSD sky130_ef_sc_hd__decap_12
XFILLER_0_8_475 VSSD VSSD VDDD VDDD sky130_fd_sc_hd__fill_1
XTAP_TAPCELL_ROW_8_124 VSSD VDDD sky130_fd_sc_hd__tapvpwrvgnd_1
Xx1.x22 net64 VSSD VSSD VDDD VDDD x1.net12 sky130_fd_sc_hd__inv_2
Xx1.x11 clknet_1_1__leaf_CLK net57 net51 VSSD VSSD VDDD VDDD x1.net11 sky130_fd_sc_hd__dfrtp_1
XTAP_TAPCELL_ROW_3_64 VSSD VDDD sky130_fd_sc_hd__tapvpwrvgnd_1
XFILLER_0_5_3 VDDD VSSD VDDD VSSD sky130_ef_sc_hd__decap_12
XTAP_TAPCELL_ROW_0_21 VSSD VDDD sky130_fd_sc_hd__tapvpwrvgnd_1
XTAP_TAPCELL_ROW_0_32 VSSD VDDD sky130_fd_sc_hd__tapvpwrvgnd_1
Xx5.x1_8 net45 net43 net53 VSSD VSSD VDDD VDDD net23 sky130_fd_sc_hd__dfrtp_1
Xfanout52 net53 VSSD VSSD VDDD VDDD net52 sky130_fd_sc_hd__clkbuf_2
XFILLER_0_7_529 VDDD VSSD VDDD VSSD sky130_ef_sc_hd__decap_12
XPHY_EDGE_ROW_3_Left_13 VSSD VSSD VDDD VDDD sky130_fd_sc_hd__decap_3
XFILLER_0_7_337 VDDD VSSD VDDD VSSD sky130_ef_sc_hd__decap_12
Xhold17 net6 VSSD VSSD VDDD VDDD net70 sky130_fd_sc_hd__dlygate4sd3_1
XTAP_TAPCELL_ROW_6_97 VSSD VDDD sky130_fd_sc_hd__tapvpwrvgnd_1
XFILLER_0_4_307 VSSD VSSD VDDD VDDD sky130_fd_sc_hd__fill_1
XFILLER_0_8_613 VSSD VSSD VDDD VDDD sky130_fd_sc_hd__decap_8
XFILLER_0_7_167 VSSD VSSD VDDD VDDD sky130_fd_sc_hd__fill_1
Xoutput18 net18 VSSD VSSD VDDD VDDD DOUT[3] sky130_fd_sc_hd__buf_2
XFILLER_0_0_557 VSSD VSSD VDDD VDDD sky130_fd_sc_hd__decap_3
XFILLER_0_3_373 VDDD VSSD VDDD VSSD sky130_ef_sc_hd__decap_12
Xoutput29 net29 VSSD VSSD VDDD VDDD SWN[4] sky130_fd_sc_hd__buf_2
XFILLER_0_0_365 VSSD VSSD VDDD VDDD sky130_fd_sc_hd__decap_6
XFILLER_0_0_387 VSSD VSSD VDDD VDDD sky130_fd_sc_hd__decap_4
XFILLER_0_4_137 VSSD VSSD VDDD VDDD sky130_fd_sc_hd__decap_3
XFILLER_0_8_421 VDDD VSSD VDDD VSSD sky130_ef_sc_hd__decap_12
XTAP_TAPCELL_ROW_8_125 VSSD VDDD sky130_fd_sc_hd__tapvpwrvgnd_1
XFILLER_0_7_7 VDDD VSSD VDDD VSSD sky130_ef_sc_hd__decap_12
XPHY_EDGE_ROW_5_Right_5 VSSD VSSD VDDD VDDD sky130_fd_sc_hd__decap_3
XTAP_TAPCELL_ROW_3_65 VSSD VDDD sky130_fd_sc_hd__tapvpwrvgnd_1
Xx1.x12 clknet_1_1__leaf_CLK x1.TRIG2 net50 VSSD VSSD VDDD VDDD x1.net6 sky130_fd_sc_hd__dfrtp_1
Xx1.x23 x1.net12 VSSD VSSD VDDD VDDD x1.net13 sky130_fd_sc_hd__inv_4
XFILLER_0_8_251 VSSD VSSD VDDD VDDD sky130_fd_sc_hd__fill_1
XTAP_TAPCELL_ROW_0_22 VSSD VDDD sky130_fd_sc_hd__tapvpwrvgnd_1
XTAP_TAPCELL_ROW_0_33 VSSD VDDD sky130_fd_sc_hd__tapvpwrvgnd_1
Xx5.x1_9 net12 net44 net53 VSSD VSSD VDDD VDDD net24 sky130_fd_sc_hd__dfrtp_1
Xfanout53 net1 VSSD VSSD VDDD VDDD net53 sky130_fd_sc_hd__buf_2
XFILLER_0_7_349 VDDD VSSD VDDD VSSD sky130_ef_sc_hd__decap_12
XFILLER_0_7_305 VDDD VSSD VDDD VSSD sky130_ef_sc_hd__decap_12
Xhold18 net2 VSSD VSSD VDDD VDDD net71 sky130_fd_sc_hd__dlygate4sd3_1
XTAP_TAPCELL_ROW_6_98 VSSD VDDD sky130_fd_sc_hd__tapvpwrvgnd_1
XFILLER_0_7_113 VSSD VSSD VDDD VDDD sky130_fd_sc_hd__fill_1
XFILLER_0_0_503 VSSD VSSD VDDD VDDD sky130_fd_sc_hd__fill_1
Xoutput19 net19 VSSD VSSD VDDD VDDD DOUT[4] sky130_fd_sc_hd__buf_2
XFILLER_0_3_385 VSSD VSSD VDDD VDDD sky130_fd_sc_hd__decap_6
XFILLER_0_5_617 VSSD VSSD VDDD VDDD sky130_fd_sc_hd__decap_8
XFILLER_0_4_105 VDDD VSSD VDDD VSSD sky130_ef_sc_hd__decap_12
XFILLER_0_8_477 VDDD VSSD VDDD VSSD sky130_ef_sc_hd__decap_12
XFILLER_0_8_433 VDDD VSSD VDDD VSSD sky130_ef_sc_hd__decap_12
XTAP_TAPCELL_ROW_8_126 VSSD VDDD sky130_fd_sc_hd__tapvpwrvgnd_1
XTAP_TAPCELL_ROW_3_66 VSSD VDDD sky130_fd_sc_hd__tapvpwrvgnd_1
Xx1.x24 x1.net13 VSSD VSSD VDDD VDDD net13 sky130_fd_sc_hd__inv_4
XFILLER_0_5_447 VSSD VSSD VDDD VDDD sky130_fd_sc_hd__fill_1
Xx1.x13 clknet_1_1__leaf_CLK net64 net50 VSSD VSSD VDDD VDDD x1.net7 sky130_fd_sc_hd__dfrtp_1
XFILLER_0_4_27 VSSD VSSD VDDD VDDD sky130_fd_sc_hd__fill_1
XFILLER_0_9_561 VDDD VSSD VDDD VSSD sky130_ef_sc_hd__decap_12
XFILLER_0_5_277 VSSD VSSD VDDD VDDD sky130_fd_sc_hd__decap_3
XFILLER_0_5_233 VDDD VSSD VDDD VSSD sky130_ef_sc_hd__decap_12
XFILLER_0_1_461 VSSD VSSD VDDD VDDD sky130_fd_sc_hd__decap_6
XTAP_TAPCELL_ROW_0_23 VSSD VDDD sky130_fd_sc_hd__tapvpwrvgnd_1
XTAP_TAPCELL_ROW_0_34 VSSD VDDD sky130_fd_sc_hd__tapvpwrvgnd_1
XFILLER_0_2_247 VSSD VSSD VDDD VDDD sky130_fd_sc_hd__decap_4
XFILLER_0_6_531 VSSD VSSD VDDD VDDD sky130_fd_sc_hd__fill_1
XFILLER_0_9_391 VSSD VSSD VDDD VDDD sky130_fd_sc_hd__fill_1
XFILLER_0_7_317 VDDD VSSD VDDD VSSD sky130_ef_sc_hd__decap_12
Xhold19 net5 VSSD VSSD VDDD VDDD net72 sky130_fd_sc_hd__dlygate4sd3_1
XTAP_TAPCELL_ROW_6_99 VSSD VDDD sky130_fd_sc_hd__tapvpwrvgnd_1
XFILLER_0_4_309 VDDD VSSD VDDD VSSD sky130_ef_sc_hd__decap_12
XFILLER_0_6_191 VSSD VSSD VDDD VDDD sky130_fd_sc_hd__decap_4
XFILLER_0_4_117 VDDD VSSD VDDD VSSD sky130_ef_sc_hd__decap_12
XTAP_TAPCELL_ROW_8_127 VSSD VDDD sky130_fd_sc_hd__tapvpwrvgnd_1
XFILLER_0_8_489 VDDD VSSD VDDD VSSD sky130_ef_sc_hd__decap_12
XFILLER_0_8_445 VDDD VSSD VDDD VSSD sky130_ef_sc_hd__decap_12
XFILLER_0_8_401 VDDD VSSD VDDD VSSD sky130_ef_sc_hd__decap_12
XTAP_TAPCELL_ROW_3_67 VSSD VDDD sky130_fd_sc_hd__tapvpwrvgnd_1
Xx1.x25 net47 VSSD VSSD VDDD VDDD net14 sky130_fd_sc_hd__inv_1
Xx1.x14 clknet_1_1__leaf_CLK net55 net50 VSSD VSSD VDDD VDDD x1.net8 sky130_fd_sc_hd__dfrtp_1
XFILLER_0_8_253 VSSD VSSD VDDD VDDD sky130_fd_sc_hd__decap_4
XFILLER_0_9_551 VSSD VSSD VDDD VDDD sky130_fd_sc_hd__decap_8
XFILLER_0_5_245 VDDD VSSD VDDD VSSD sky130_ef_sc_hd__decap_12
XFILLER_0_5_223 VSSD VSSD VDDD VDDD sky130_fd_sc_hd__fill_1
XTAP_TAPCELL_ROW_0_24 VSSD VDDD sky130_fd_sc_hd__tapvpwrvgnd_1
XTAP_TAPCELL_ROW_0_35 VSSD VDDD sky130_fd_sc_hd__tapvpwrvgnd_1
Xx4.x1_0 net2 x4.COMP_BUF_P net48 VSSD VSSD VDDD VDDD net35 sky130_fd_sc_hd__dfrtp_2
XFILLER_0_6_587 VSSD VSSD VDDD VDDD sky130_fd_sc_hd__fill_1
XFILLER_0_1_281 VDDD VSSD VDDD VSSD sky130_ef_sc_hd__decap_12
XFILLER_0_7_329 VSSD VSSD VDDD VDDD sky130_fd_sc_hd__decap_6
Xinput1 EN VSSD VSSD VDDD VDDD net1 sky130_fd_sc_hd__clkbuf_1
XPHY_EDGE_ROW_7_Left_17 VSSD VSSD VDDD VDDD sky130_fd_sc_hd__decap_3
XFILLER_0_0_505 VDDD VSSD VDDD VSSD sky130_ef_sc_hd__decap_12
XFILLER_0_0_549 VSSD VSSD VDDD VDDD sky130_fd_sc_hd__decap_8
XFILLER_0_2_83 VSSD VSSD VDDD VDDD sky130_fd_sc_hd__fill_1
XFILLER_0_8_457 VDDD VSSD VDDD VSSD sky130_ef_sc_hd__decap_12
XFILLER_0_8_413 VSSD VSSD VDDD VDDD sky130_fd_sc_hd__decap_6
XFILLER_0_0_335 VSSD VSSD VDDD VDDD sky130_fd_sc_hd__fill_1
XFILLER_0_4_129 VSSD VSSD VDDD VDDD sky130_fd_sc_hd__decap_8
XTAP_TAPCELL_ROW_8_128 VSSD VDDD sky130_fd_sc_hd__tapvpwrvgnd_1
XTAP_TAPCELL_ROW_3_68 VSSD VDDD sky130_fd_sc_hd__tapvpwrvgnd_1
XPHY_EDGE_ROW_9_Right_9 VSSD VSSD VDDD VDDD sky130_fd_sc_hd__decap_3
Xx1.x15 clknet_1_1__leaf_CLK net59 net50 VSSD VSSD VDDD VDDD x1.net9 sky130_fd_sc_hd__dfrtp_1
XFILLER_0_5_449 VDDD VSSD VDDD VSSD sky130_ef_sc_hd__decap_12
XFILLER_0_5_405 VDDD VSSD VDDD VSSD sky130_ef_sc_hd__decap_12
XFILLER_0_8_93 VSSD VSSD VDDD VDDD sky130_fd_sc_hd__decap_4
XFILLER_0_0_165 VSSD VSSD VDDD VDDD sky130_fd_sc_hd__decap_3
XFILLER_0_2_419 VSSD VSSD VDDD VDDD sky130_fd_sc_hd__fill_1
XFILLER_0_4_29 VDDD VSSD VDDD VSSD sky130_ef_sc_hd__decap_12
XFILLER_0_5_257 VDDD VSSD VDDD VSSD sky130_ef_sc_hd__decap_12
XFILLER_0_5_202 VSSD VSSD VDDD VDDD sky130_fd_sc_hd__fill_1
XFILLER_0_1_441 VSSD VSSD VDDD VDDD sky130_fd_sc_hd__decap_6
XTAP_TAPCELL_ROW_0_25 VSSD VDDD sky130_fd_sc_hd__tapvpwrvgnd_1
XTAP_TAPCELL_ROW_0_36 VSSD VDDD sky130_fd_sc_hd__tapvpwrvgnd_1
Xfanout45 net12 VSSD VSSD VDDD VDDD net45 sky130_fd_sc_hd__clkbuf_4
XFILLER_0_9_393 VDDD VSSD VDDD VSSD sky130_ef_sc_hd__decap_12
Xx4.x1_1 net3 x4.COMP_BUF_P net46 VSSD VSSD VDDD VDDD net36 sky130_fd_sc_hd__dfrtp_4
XFILLER_0_6_533 VDDD VSSD VDDD VSSD sky130_ef_sc_hd__decap_12
XFILLER_0_1_293 VSSD VSSD VDDD VDDD sky130_fd_sc_hd__decap_3
XFILLER_0_3_503 VSSD VSSD VDDD VDDD sky130_fd_sc_hd__fill_1
XFILLER_0_6_363 VSSD VSSD VDDD VDDD sky130_fd_sc_hd__fill_1
XFILLER_0_0_517 VDDD VSSD VDDD VSSD sky130_ef_sc_hd__decap_12
XFILLER_0_5_609 VSSD VSSD VDDD VDDD sky130_fd_sc_hd__decap_6
XTAP_TAPCELL_ROW_8_129 VSSD VDDD sky130_fd_sc_hd__tapvpwrvgnd_1
XFILLER_0_8_469 VSSD VSSD VDDD VDDD sky130_fd_sc_hd__decap_6
XFILLER_0_3_163 VSSD VSSD VDDD VDDD sky130_fd_sc_hd__decap_4
XFILLER_0_5_417 VDDD VSSD VDDD VSSD sky130_ef_sc_hd__decap_12
Xx1.x16 clknet_1_1__leaf_CLK net63 net50 VSSD VSSD VDDD VDDD x1.net10 sky130_fd_sc_hd__dfrtp_1
XTAP_TAPCELL_ROW_3_69 VSSD VDDD sky130_fd_sc_hd__tapvpwrvgnd_1
XFILLER_0_5_269 VSSD VSSD VDDD VDDD sky130_fd_sc_hd__decap_8
XFILLER_0_4_19 VSSD VSSD VDDD VDDD sky130_fd_sc_hd__decap_8
Xfanout46 net48 VSSD VSSD VDDD VDDD net46 sky130_fd_sc_hd__clkbuf_4
XTAP_TAPCELL_ROW_0_26 VSSD VDDD sky130_fd_sc_hd__tapvpwrvgnd_1
XTAP_TAPCELL_ROW_0_37 VSSD VDDD sky130_fd_sc_hd__tapvpwrvgnd_1
XFILLER_0_6_589 VDDD VSSD VDDD VSSD sky130_ef_sc_hd__decap_12
XFILLER_0_6_545 VDDD VSSD VDDD VSSD sky130_ef_sc_hd__decap_12
XFILLER_0_6_501 VDDD VSSD VDDD VSSD sky130_ef_sc_hd__decap_12
Xx4.x1_2 net4 x4.COMP_BUF_P net48 VSSD VSSD VDDD VDDD net37 sky130_fd_sc_hd__dfrtp_2
XFILLER_0_5_51 VSSD VSSD VDDD VDDD sky130_fd_sc_hd__decap_4
XFILLER_0_3_559 VSSD VSSD VDDD VDDD sky130_fd_sc_hd__fill_1
XFILLER_0_0_529 VSSD VSSD VDDD VDDD sky130_fd_sc_hd__decap_3
XFILLER_0_2_41 VDDD VSSD VDDD VSSD sky130_ef_sc_hd__decap_12
XFILLER_0_2_85 VDDD VSSD VDDD VSSD sky130_ef_sc_hd__decap_12
XFILLER_0_7_19 VDDD VSSD VDDD VSSD sky130_ef_sc_hd__decap_12
XFILLER_0_0_337 VDDD VSSD VDDD VSSD sky130_ef_sc_hd__decap_12
XTAP_TAPCELL_ROW_8_119 VSSD VDDD sky130_fd_sc_hd__tapvpwrvgnd_1
XPHY_EDGE_ROW_0_Right_0 VSSD VSSD VDDD VDDD sky130_fd_sc_hd__decap_3
XFILLER_0_8_278 VDDD VSSD VDDD VSSD sky130_ef_sc_hd__decap_12
XFILLER_0_5_429 VDDD VSSD VDDD VSSD sky130_ef_sc_hd__decap_12
XFILLER_0_0_145 VDDD VSSD VDDD VSSD sky130_ef_sc_hd__decap_12
XTAP_TAPCELL_ROW_4_80 VSSD VDDD sky130_fd_sc_hd__tapvpwrvgnd_1
XFILLER_0_9_587 VSSD VSSD VDDD VDDD sky130_fd_sc_hd__fill_1
Xfanout47 net48 VSSD VSSD VDDD VDDD net47 sky130_fd_sc_hd__clkbuf_4
XTAP_TAPCELL_ROW_0_27 VSSD VDDD sky130_fd_sc_hd__tapvpwrvgnd_1
XFILLER_0_1_487 VDDD VSSD VDDD VSSD sky130_ef_sc_hd__decap_12
XTAP_TAPCELL_ROW_0_38 VSSD VDDD sky130_fd_sc_hd__tapvpwrvgnd_1
XFILLER_0_6_557 VDDD VSSD VDDD VSSD sky130_ef_sc_hd__decap_12
XFILLER_0_6_513 VDDD VSSD VDDD VSSD sky130_ef_sc_hd__decap_12
Xx4.x1_3 net5 x4.COMP_BUF_P net48 VSSD VSSD VDDD VDDD net38 sky130_fd_sc_hd__dfrtp_2
XFILLER_0_5_85 VSSD VSSD VDDD VDDD sky130_fd_sc_hd__fill_1
XFILLER_0_3_505 VDDD VSSD VDDD VSSD sky130_ef_sc_hd__decap_12
XFILLER_0_6_365 VDDD VSSD VDDD VSSD sky130_ef_sc_hd__decap_12
XFILLER_0_6_321 VDDD VSSD VDDD VSSD sky130_ef_sc_hd__decap_12
XFILLER_0_3_335 VSSD VSSD VDDD VDDD sky130_fd_sc_hd__fill_1
XFILLER_0_6_195 VSSD VSSD VDDD VDDD sky130_fd_sc_hd__fill_1
XFILLER_0_2_53 VDDD VSSD VDDD VSSD sky130_ef_sc_hd__decap_12
XFILLER_0_2_97 VDDD VSSD VDDD VSSD sky130_ef_sc_hd__decap_12
XFILLER_0_0_305 VSSD VSSD VDDD VDDD sky130_fd_sc_hd__decap_3
XFILLER_0_0_349 VDDD VSSD VDDD VSSD sky130_ef_sc_hd__decap_12
XFILLER_0_0_157 VSSD VSSD VDDD VDDD sky130_fd_sc_hd__decap_8
XFILLER_0_0_113 VDDD VSSD VDDD VSSD sky130_ef_sc_hd__decap_12
Xfanout48 net13 VSSD VSSD VDDD VDDD net48 sky130_fd_sc_hd__clkbuf_4
XTAP_TAPCELL_ROW_4_81 VSSD VDDD sky130_fd_sc_hd__tapvpwrvgnd_1
XFILLER_0_1_499 VSSD VSSD VDDD VDDD sky130_fd_sc_hd__decap_4
XTAP_TAPCELL_ROW_0_28 VSSD VDDD sky130_fd_sc_hd__tapvpwrvgnd_1
XTAP_TAPCELL_ROW_0_39 VSSD VDDD sky130_fd_sc_hd__tapvpwrvgnd_1
XFILLER_0_3_7 VDDD VSSD VDDD VSSD sky130_ef_sc_hd__decap_12
XFILLER_0_6_569 VDDD VSSD VDDD VSSD sky130_ef_sc_hd__decap_12
XFILLER_0_6_525 VSSD VSSD VDDD VDDD sky130_fd_sc_hd__decap_6
Xx4.x1_4 net6 x4.COMP_BUF_P net48 VSSD VSSD VDDD VDDD net39 sky130_fd_sc_hd__dfrtp_1
XFILLER_0_9_363 VSSD VSSD VDDD VDDD sky130_fd_sc_hd__fill_1
XFILLER_0_3_517 VDDD VSSD VDDD VSSD sky130_ef_sc_hd__decap_12
XFILLER_0_6_377 VDDD VSSD VDDD VSSD sky130_ef_sc_hd__decap_12
XFILLER_0_6_333 VDDD VSSD VDDD VSSD sky130_ef_sc_hd__decap_12
XFILLER_0_2_561 VDDD VSSD VDDD VSSD sky130_ef_sc_hd__decap_12
XFILLER_0_9_193 VSSD VSSD VDDD VDDD sky130_fd_sc_hd__decap_3
XFILLER_0_6_141 VSSD VSSD VDDD VDDD sky130_fd_sc_hd__fill_2
XFILLER_0_2_65 VDDD VSSD VDDD VSSD sky130_ef_sc_hd__decap_12
XFILLER_0_4_601 VDDD VSSD VDDD VSSD sky130_ef_sc_hd__decap_12
XFILLER_0_0_317 VDDD VSSD VDDD VSSD sky130_ef_sc_hd__decap_12
XFILLER_0_3_111 VSSD VSSD VDDD VDDD sky130_fd_sc_hd__fill_1
XFILLER_0_7_461 VDDD VSSD VDDD VSSD sky130_ef_sc_hd__decap_12
XTAP_TAPCELL_ROW_7_110 VSSD VDDD sky130_fd_sc_hd__tapvpwrvgnd_1