** sch_path: /home/mthudaa/Documents/UNIC-CASS-TSAR-ADC-ITS/xschem/adc_tb.sch
**.subckt adc_tb
VS VSSA GND 0
VDA VDDA VSSA 1.8
VDD VDDD VSSD 1.8
VC VCM VSSR 0.9
VSS1 net2 net1 SIN(0 0.9 1k)
VSS2 net3 net1 SIN(0 -0.9 1k)
VSS3 net1 VSSR 0.9
VCLK CLK VSSD PULSE(0 1.8 10n 50p 50p 1u 2u)
x1 VDDR VDDA VDDD VCM EN CLK VIP VIN VSSR VSSA VSSD DOUT[0] DOUT[1] DOUT[2] DOUT[3] DOUT[4] DOUT[5] DOUT[6] DOUT[7] DOUT[8]
+ DOUT[9] CKO COMP_P COMP_N 10b_adc
R1 VIP net2 50 m=1
R2 VIN net3 50 m=1
VS1 VSSD GND 0
VS2 VSSR GND 0
VDR VDDR VSSR 1.8
VCLK1 EN VSSD PWL(0 0, 1u 0, 1.01u 1.8)
**** begin user architecture code

** opencircuitdesign pdks install
* .lib /usr/local/share/pdk/sky130A/libs.tech/ngspice/sky130.lib.spice tt
.include /usr/local/share/pdk/sky130A/libs.ref/sky130_fd_sc_hd/spice/sky130_fd_sc_hd.spice



.option wnflag=0
.option savecurrents
.options acct list
.options method=trapezoid
.options reltol=1e-3 abstol=1e-4
.options maxstep=10n
.options minbreak=1n
.options solver=iterative
.control
global netlist_dir /home/mthudaa/.xschem/simulations
set wr_singlescale
save
+ clk
+ vip
+ vin
+ x1.vcp
+ x1.vcn
+ x1.comp_p
+ x1.clks
+ 'dout[0]'
+ 'dout[1]'
+ 'dout[2]'
+ 'dout[3]'
+ 'dout[4]'
+ 'dout[5]'
+ 'dout[6]'
+ 'dout[7]'
+ 'dout[8]'
+ 'dout[9]'
+ cko
tran 10n 0.15m
remzerovec
write adc_tb.raw
quit 0
.endc

.lib /usr/local/share/pdk/sky130A/libs.tech/ngspice/sky130.lib.spice tt
**** end user architecture code
**.ends

* expanding   symbol:  10b_adc.sym # of pins=15
** sym_path: /home/mthudaa/Documents/UNIC-CASS-TSAR-ADC-ITS/xschem/10b_adc.sym
** sch_path: /home/mthudaa/Documents/UNIC-CASS-TSAR-ADC-ITS/xschem/10b_adc.sch
.subckt 10b_adc VDDR VDDA VDDD VCM EN CLK VIP VIN VSSR VSSA VSSD DOUT[0] DOUT[1] DOUT[2] DOUT[3] DOUT[4] DOUT[5] DOUT[6] DOUT[7]
+ DOUT[8] DOUT[9] CKO COMP_P COMP_N
*.ipin VDDA
*.ipin VDDD
*.ipin VCM
*.ipin CLK
*.ipin VIP
*.ipin VIN
*.ipin VSSA
*.ipin VSSD
*.opin DOUT[0],DOUT[1],DOUT[2],DOUT[3],DOUT[4],DOUT[5],DOUT[6],DOUT[7],DOUT[8],DOUT[9]
*.opin CKO
*.ipin VSSR
*.ipin VDDR
*.ipin EN
*.opin COMP_P
*.opin COMP_N
x2 VDDA CLKSB CLKS VIP VIN VSSA VCP VCN th_sw
x1 VDDR CF[0] CF[1] CF[2] CF[3] CF[4] CF[5] CF[6] CF[7] CF[8] CF[9] SWP[0] SWP[1] SWP[2] SWP[3] SWP[4] SWP[5] SWP[6] SWP[7] SWP[8]
+ SWP[9] SWN[0] SWN[1] SWN[2] SWN[3] SWN[4] SWN[5] SWN[6] SWN[7] SWN[8] SWN[9] VCM VSSR VCP VCN cdac_10b
x3 VDDA CLK VCP VCN VSSA COMP_P COMP_N tdc
x4 CF[0] CF[1] CF[2] CF[3] CF[4] CF[5] CF[6] CF[7] CF[8] CF[9] CKO CLK CLKS
+ COMP_N COMP_P DOUT[0] DOUT[1] DOUT[2] DOUT[3] DOUT[4] DOUT[5] DOUT[6] DOUT[7] DOUT[8]
+ DOUT[9] EN SWN[0] SWN[1] SWN[2] SWN[3] SWN[4] SWN[5] SWN[6] SWN[7] SWN[8] SWN[9]
+ SWP[0] SWP[1] SWP[2] SWP[3] SWP[4] SWP[5] SWP[6] SWP[7] SWP[8] SWP[9] VDDD VSSD sar
x5 VDDD CKC RST VSSD CLKS CLKSB auto_sampling
.ends


* expanding   symbol:  th_sw.sym # of pins=8
** sym_path: /home/mthudaa/Documents/UNIC-CASS-TSAR-ADC-ITS/xschem/th_sw.sym
** sch_path: /home/mthudaa/Documents/UNIC-CASS-TSAR-ADC-ITS/xschem/th_sw.sch
.subckt th_sw VDDA CLKS CLKSB VIP VIN VSSA VCP VCN
*.ipin VDDA
*.ipin CLKS
*.ipin CLKSB
*.ipin VIP
*.ipin VIN
*.ipin VSSA
*.iopin VCP
*.iopin VCN
x1 VDDA CLKS CLKSB VIP VSSA VCP bsw
x2 VDDA CLKS CLKSB VIN VSSA VCN bsw
.ends


* expanding   symbol:  cdac_10b.sym # of pins=8
** sym_path: /home/mthudaa/Documents/UNIC-CASS-TSAR-ADC-ITS/xschem/cdac_10b.sym
** sch_path: /home/mthudaa/Documents/UNIC-CASS-TSAR-ADC-ITS/xschem/cdac_10b.sch
.subckt cdac_10b vdref cf[0] cf[1] cf[2] cf[3] cf[4] cf[5] cf[6] cf[7] cf[8] cf[9] swp_in[0] swp_in[1] swp_in[2] swp_in[3]
+ swp_in[4] swp_in[5] swp_in[6] swp_in[7] swp_in[8] swp_in[9] swn_in[0] swn_in[1] swn_in[2] swn_in[3] swn_in[4] swn_in[5] swn_in[6] swn_in[7]
+ swn_in[8] swn_in[9] vcm vsref vcp vcn
*.ipin vdref
*.ipin cf[0],cf[1],cf[2],cf[3],cf[4],cf[5],cf[6],cf[7],cf[8],cf[9]
*.ipin swp_in[0],swp_in[1],swp_in[2],swp_in[3],swp_in[4],swp_in[5],swp_in[6],swp_in[7],swp_in[8],swp_in[9]
*.ipin swn_in[0],swn_in[1],swn_in[2],swn_in[3],swn_in[4],swn_in[5],swn_in[6],swn_in[7],swn_in[8],swn_in[9]
*.ipin vcm
*.ipin vsref
*.iopin vcp
*.iopin vcn
x3 vdref cf[0] cf[1] cf[2] cf[3] cf[4] cf[5] cf[6] cf[7] cf[8] cf[9] swp_in[0] swp_in[1] swp_in[2] swp_in[3] swp_in[4] swp_in[5]
+ swp_in[6] swp_in[7] swp_in[8] swp_in[9] vcm vsref vcp single_10b_cdac
x4 vdref cf[0] cf[1] cf[2] cf[3] cf[4] cf[5] cf[6] cf[7] cf[8] cf[9] swn_in[0] swn_in[1] swn_in[2] swn_in[3] swn_in[4] swn_in[5]
+ swn_in[6] swn_in[7] swn_in[8] swn_in[9] vcm vsref vcn single_10b_cdac
x1 vdref cf[0] cf[1] cf[2] cf[3] cf[4] cf[5] cf[6] cf[7] cf[8] cf[9] swp_in[0] swp_in[1] swp_in[2] swp_in[3] swp_in[4] swp_in[5]
+ swp_in[6] swp_in[7] swp_in[8] swp_in[9] vcm vsref vcp single_10b_cdac
x2 vdref cf[0] cf[1] cf[2] cf[3] cf[4] cf[5] cf[6] cf[7] cf[8] cf[9] swn_in[0] swn_in[1] swn_in[2] swn_in[3] swn_in[4] swn_in[5]
+ swn_in[6] swn_in[7] swn_in[8] swn_in[9] vcm vsref vcn single_10b_cdac
.ends


* expanding   symbol:  tdc.sym # of pins=7
** sym_path: /home/mthudaa/Documents/UNIC-CASS-TSAR-ADC-ITS/xschem/tdc.sym
** sch_path: /home/mthudaa/Documents/UNIC-CASS-TSAR-ADC-ITS/xschem/tdc.sch
.subckt tdc vdda start vinp vinn vssa outp outn
*.ipin vinn
*.ipin vinp
*.ipin vdda
*.ipin vssa
*.ipin start
*.opin outp
*.opin outn
x1 vdda inp inn vssa outp outn phase_detector
x4 net1 vssa vssa vdda vdda inn sky130_fd_sc_hd__inv_8
x5 net2 vssa vssa vdda vdda inp sky130_fd_sc_hd__inv_8
x2 start net1 vinp vinn vdda vssa delay_element
x3 start net2 vinn vinp vdda vssa delay_element
.ends


* expanding   symbol:  bsw.sym # of pins=6
** sym_path: /home/mthudaa/Documents/UNIC-CASS-TSAR-ADC-ITS/xschem/bsw.sym
** sch_path: /home/mthudaa/Documents/UNIC-CASS-TSAR-ADC-ITS/xschem/bsw.sch
.subckt bsw vdd clk clkb vi vss vo
*.ipin vdd
*.ipin clk
*.ipin clkb
*.ipin vi
*.ipin vss
*.opin vo
XM1 net1 clk vdd vdd sky130_fd_pr__pfet_01v8 L=0.15 W=3 nf=1 ad='int((nf+1)/2) * W/nf * 0.29' as='int((nf+2)/2) * W/nf * 0.29' pd='2*int((nf+1)/2) * (W/nf + 0.29)'
+ ps='2*int((nf+2)/2) * (W/nf + 0.29)' nrd='0.29 / W' nrs='0.29 / W' sa=0 sb=0 sd=0 mult=1 m=1
XM2 net2 net3 vdd net2 sky130_fd_pr__pfet_01v8 L=0.15 W=3 nf=1 ad='int((nf+1)/2) * W/nf * 0.29' as='int((nf+2)/2) * W/nf * 0.29' pd='2*int((nf+1)/2) * (W/nf + 0.29)'
+ ps='2*int((nf+2)/2) * (W/nf + 0.29)' nrd='0.29 / W' nrs='0.29 / W' sa=0 sb=0 sd=0 mult=1 m=1
XM3 net3 net1 net2 net2 sky130_fd_pr__pfet_01v8 L=0.15 W=3 nf=1 ad='int((nf+1)/2) * W/nf * 0.29' as='int((nf+2)/2) * W/nf * 0.29' pd='2*int((nf+1)/2) * (W/nf + 0.29)'
+ ps='2*int((nf+2)/2) * (W/nf + 0.29)' nrd='0.29 / W' nrs='0.29 / W' sa=0 sb=0 sd=0 mult=1 m=1
XM4 net1 clk net5 vss sky130_fd_pr__nfet_01v8 L=0.15 W=1 nf=1 ad='int((nf+1)/2) * W/nf * 0.29' as='int((nf+2)/2) * W/nf * 0.29' pd='2*int((nf+1)/2) * (W/nf + 0.29)'
+ ps='2*int((nf+2)/2) * (W/nf + 0.29)' nrd='0.29 / W' nrs='0.29 / W' sa=0 sb=0 sd=0 mult=1 m=1
XM5 net5 clkb vss vss sky130_fd_pr__nfet_01v8 L=0.15 W=1 nf=1 ad='int((nf+1)/2) * W/nf * 0.29' as='int((nf+2)/2) * W/nf * 0.29' pd='2*int((nf+1)/2) * (W/nf + 0.29)'
+ ps='2*int((nf+2)/2) * (W/nf + 0.29)' nrd='0.29 / W' nrs='0.29 / W' sa=0 sb=0 sd=0 mult=1 m=1
XM6 net1 net3 net5 vss sky130_fd_pr__nfet_01v8 L=0.15 W=1 nf=1 ad='int((nf+1)/2) * W/nf * 0.29' as='int((nf+2)/2) * W/nf * 0.29' pd='2*int((nf+1)/2) * (W/nf + 0.29)'
+ ps='2*int((nf+2)/2) * (W/nf + 0.29)' nrd='0.29 / W' nrs='0.29 / W' sa=0 sb=0 sd=0 mult=1 m=1
XM7 net5 net3 vi vss sky130_fd_pr__nfet_01v8 L=0.15 W=1 nf=1 ad='int((nf+1)/2) * W/nf * 0.29' as='int((nf+2)/2) * W/nf * 0.29' pd='2*int((nf+1)/2) * (W/nf + 0.29)'
+ ps='2*int((nf+2)/2) * (W/nf + 0.29)' nrd='0.29 / W' nrs='0.29 / W' sa=0 sb=0 sd=0 mult=1 m=1
XM8 net3 vdd net4 vss sky130_fd_pr__nfet_01v8 L=0.15 W=1 nf=1 ad='int((nf+1)/2) * W/nf * 0.29' as='int((nf+2)/2) * W/nf * 0.29' pd='2*int((nf+1)/2) * (W/nf + 0.29)'
+ ps='2*int((nf+2)/2) * (W/nf + 0.29)' nrd='0.29 / W' nrs='0.29 / W' sa=0 sb=0 sd=0 mult=1 m=1
XM9 net4 clkb vss vss sky130_fd_pr__nfet_01v8 L=0.15 W=1 nf=1 ad='int((nf+1)/2) * W/nf * 0.29' as='int((nf+2)/2) * W/nf * 0.29' pd='2*int((nf+1)/2) * (W/nf + 0.29)'
+ ps='2*int((nf+2)/2) * (W/nf + 0.29)' nrd='0.29 / W' nrs='0.29 / W' sa=0 sb=0 sd=0 mult=1 m=1
XC1 net2 net5 sky130_fd_pr__cap_mim_m3_1 W=2 L=2 MF=4 m=4
XM10 vo net3 vi vss sky130_fd_pr__nfet_01v8 L=0.5 W=8 nf=1 ad='int((nf+1)/2) * W/nf * 0.29' as='int((nf+2)/2) * W/nf * 0.29' pd='2*int((nf+1)/2) * (W/nf + 0.29)'
+ ps='2*int((nf+2)/2) * (W/nf + 0.29)' nrd='0.29 / W' nrs='0.29 / W' sa=0 sb=0 sd=0 mult=1 m=1
.ends


* expanding   symbol:  single_10b_cdac.sym # of pins=6
** sym_path: /home/mthudaa/Documents/UNIC-CASS-TSAR-ADC-ITS/xschem/single_10b_cdac.sym
** sch_path: /home/mthudaa/Documents/UNIC-CASS-TSAR-ADC-ITS/xschem/single_10b_cdac.sch
.subckt single_10b_cdac vdref cf[0] cf[1] cf[2] cf[3] cf[4] cf[5] cf[6] cf[7] cf[8] cf[9] sw_in[0] sw_in[1] sw_in[2] sw_in[3]
+ sw_in[4] sw_in[5] sw_in[6] sw_in[7] sw_in[8] sw_in[9] vcm vsref vc
*.ipin vdref
*.ipin cf[0],cf[1],cf[2],cf[3],cf[4],cf[5],cf[6],cf[7],cf[8],cf[9]
*.ipin sw_in[0],sw_in[1],sw_in[2],sw_in[3],sw_in[4],sw_in[5],sw_in[6],sw_in[7],sw_in[8],sw_in[9]
*.ipin vcm
*.ipin vsref
*.iopin vc
x1 vcm sw[0] sw[1] sw[2] sw[3] sw[4] sw[5] sw[6] sw[7] sw[8] sw[9] vc 10b_cap_array
x3[0] vdref cf[0] sw_in[0] vcm vsref sw[0] cdac_sw_16
x3[1] vdref cf[1] sw_in[1] vcm vsref sw[1] cdac_sw_16
x4[2] vdref cf[2] sw_in[2] vcm vsref sw[2] cdac_sw_8
x4[3] vdref cf[3] sw_in[3] vcm vsref sw[3] cdac_sw_8
x6[4] vdref cf[4] sw_in[4] vcm vsref sw[4] cdac_sw_4
x6[5] vdref cf[5] sw_in[5] vcm vsref sw[5] cdac_sw_4
x8[6] vdref cf[6] sw_in[6] vcm vsref sw[6] cdac_sw_2
x8[7] vdref cf[7] sw_in[7] vcm vsref sw[7] cdac_sw_2
x10[8] vdref cf[8] sw_in[8] vcm vsref sw[8] cdac_sw_1
x10[9] vdref cf[9] sw_in[9] vcm vsref sw[9] cdac_sw_1
.ends


* expanding   symbol:  phase_detector.sym # of pins=6
** sym_path: /home/mthudaa/Documents/UNIC-CASS-TSAR-ADC-ITS/xschem/phase_detector.sym
** sch_path: /home/mthudaa/Documents/UNIC-CASS-TSAR-ADC-ITS/xschem/phase_detector.sch
.subckt phase_detector VDDA INP INN VSSA OUT OUTN
*.ipin VDDA
*.ipin INP
*.ipin INN
*.ipin VSSA
*.opin OUT
*.opin OUTN
x1 OUTN net3 VSSA VSSA VDDA VDDA OUT sky130_fd_sc_hd__nand2_1
x2 net5 OUT VSSA VSSA VDDA VDDA OUTN sky130_fd_sc_hd__nand2_1
XM1 net1 INN VDDA VDDA sky130_fd_pr__pfet_01v8 L=0.15 W=1 nf=1 ad='int((nf+1)/2) * W/nf * 0.29' as='int((nf+2)/2) * W/nf * 0.29' pd='2*int((nf+1)/2) * (W/nf + 0.29)'
+ ps='2*int((nf+2)/2) * (W/nf + 0.29)' nrd='0.29 / W' nrs='0.29 / W' sa=0 sb=0 sd=0 mult=1 m=1
XM2 net3 INP net1 VDDA sky130_fd_pr__pfet_01v8 L=0.15 W=1 nf=1 ad='int((nf+1)/2) * W/nf * 0.29' as='int((nf+2)/2) * W/nf * 0.29' pd='2*int((nf+1)/2) * (W/nf + 0.29)'
+ ps='2*int((nf+2)/2) * (W/nf + 0.29)' nrd='0.29 / W' nrs='0.29 / W' sa=0 sb=0 sd=0 mult=1 m=1
XM3 net2 INP VDDA VDDA sky130_fd_pr__pfet_01v8 L=0.15 W=1 nf=1 ad='int((nf+1)/2) * W/nf * 0.29' as='int((nf+2)/2) * W/nf * 0.29' pd='2*int((nf+1)/2) * (W/nf + 0.29)'
+ ps='2*int((nf+2)/2) * (W/nf + 0.29)' nrd='0.29 / W' nrs='0.29 / W' sa=0 sb=0 sd=0 mult=1 m=1
XM4 net5 INN net2 VDDA sky130_fd_pr__pfet_01v8 L=0.15 W=1 nf=1 ad='int((nf+1)/2) * W/nf * 0.29' as='int((nf+2)/2) * W/nf * 0.29' pd='2*int((nf+1)/2) * (W/nf + 0.29)'
+ ps='2*int((nf+2)/2) * (W/nf + 0.29)' nrd='0.29 / W' nrs='0.29 / W' sa=0 sb=0 sd=0 mult=1 m=1
XM5 net3 net5 VDDA VDDA sky130_fd_pr__pfet_01v8 L=0.15 W=1 nf=1 ad='int((nf+1)/2) * W/nf * 0.29' as='int((nf+2)/2) * W/nf * 0.29' pd='2*int((nf+1)/2) * (W/nf + 0.29)'
+ ps='2*int((nf+2)/2) * (W/nf + 0.29)' nrd='0.29 / W' nrs='0.29 / W' sa=0 sb=0 sd=0 mult=1 m=1
XM6 net3 net5 net4 VSSA sky130_fd_pr__nfet_01v8 L=0.15 W=0.5 nf=1 ad='int((nf+1)/2) * W/nf * 0.29' as='int((nf+2)/2) * W/nf * 0.29'
+ pd='2*int((nf+1)/2) * (W/nf + 0.29)' ps='2*int((nf+2)/2) * (W/nf + 0.29)' nrd='0.29 / W' nrs='0.29 / W' sa=0 sb=0 sd=0 mult=1 m=1
XM7 net4 INP VSSA VSSA sky130_fd_pr__nfet_01v8 L=0.15 W=0.5 nf=1 ad='int((nf+1)/2) * W/nf * 0.29' as='int((nf+2)/2) * W/nf * 0.29'
+ pd='2*int((nf+1)/2) * (W/nf + 0.29)' ps='2*int((nf+2)/2) * (W/nf + 0.29)' nrd='0.29 / W' nrs='0.29 / W' sa=0 sb=0 sd=0 mult=1 m=1
XM8 net5 net3 VDDA VDDA sky130_fd_pr__pfet_01v8 L=0.15 W=1 nf=1 ad='int((nf+1)/2) * W/nf * 0.29' as='int((nf+2)/2) * W/nf * 0.29' pd='2*int((nf+1)/2) * (W/nf + 0.29)'
+ ps='2*int((nf+2)/2) * (W/nf + 0.29)' nrd='0.29 / W' nrs='0.29 / W' sa=0 sb=0 sd=0 mult=1 m=1
XM9 net5 net3 net6 VSSA sky130_fd_pr__nfet_01v8 L=0.15 W=0.5 nf=1 ad='int((nf+1)/2) * W/nf * 0.29' as='int((nf+2)/2) * W/nf * 0.29'
+ pd='2*int((nf+1)/2) * (W/nf + 0.29)' ps='2*int((nf+2)/2) * (W/nf + 0.29)' nrd='0.29 / W' nrs='0.29 / W' sa=0 sb=0 sd=0 mult=1 m=1
XM10 net6 INN VSSA VSSA sky130_fd_pr__nfet_01v8 L=0.15 W=0.5 nf=1 ad='int((nf+1)/2) * W/nf * 0.29' as='int((nf+2)/2) * W/nf * 0.29'
+ pd='2*int((nf+1)/2) * (W/nf + 0.29)' ps='2*int((nf+2)/2) * (W/nf + 0.29)' nrd='0.29 / W' nrs='0.29 / W' sa=0 sb=0 sd=0 mult=1 m=1
.ends


* expanding   symbol:  delay_element.sym # of pins=6
** sym_path: /home/mthudaa/Documents/UNIC-CASS-TSAR-ADC-ITS/xschem/delay_element.sym
** sch_path: /home/mthudaa/Documents/UNIC-CASS-TSAR-ADC-ITS/xschem/delay_element.sch
.subckt delay_element IN OUT VIP VIN VDD VSS
*.ipin VDD
*.ipin VIN
*.ipin IN
*.ipin VSS
*.opin OUT
*.ipin VIP
XM1 net2 VIP VDD VDD sky130_fd_pr__pfet_01v8_lvt L=15 W=6 nf=1 ad='int((nf+1)/2) * W/nf * 0.29' as='int((nf+2)/2) * W/nf * 0.29' pd='2*int((nf+1)/2) * (W/nf + 0.29)'
+ ps='2*int((nf+2)/2) * (W/nf + 0.29)' nrd='0.29 / W' nrs='0.29 / W' sa=0 sb=0 sd=0 mult=1 m=1
XM2 net1 IN net2 VDD sky130_fd_pr__pfet_01v8_lvt L=15 W=6 nf=1 ad='int((nf+1)/2) * W/nf * 0.29' as='int((nf+2)/2) * W/nf * 0.29' pd='2*int((nf+1)/2) * (W/nf + 0.29)'
+ ps='2*int((nf+2)/2) * (W/nf + 0.29)' nrd='0.29 / W' nrs='0.29 / W' sa=0 sb=0 sd=0 mult=1 m=1
XM3 net1 IN VSS VSS sky130_fd_pr__nfet_01v8_lvt L=15 W=2 nf=1 ad='int((nf+1)/2) * W/nf * 0.29' as='int((nf+2)/2) * W/nf * 0.29' pd='2*int((nf+1)/2) * (W/nf + 0.29)'
+ ps='2*int((nf+2)/2) * (W/nf + 0.29)' nrd='0.29 / W' nrs='0.29 / W' sa=0 sb=0 sd=0 mult=1 m=1
XM6 OUT net1 VDD VDD sky130_fd_pr__pfet_01v8_lvt L=15 W=6 nf=1 ad='int((nf+1)/2) * W/nf * 0.29' as='int((nf+2)/2) * W/nf * 0.29' pd='2*int((nf+1)/2) * (W/nf + 0.29)'
+ ps='2*int((nf+2)/2) * (W/nf + 0.29)' nrd='0.29 / W' nrs='0.29 / W' sa=0 sb=0 sd=0 mult=1 m=1
XM7 OUT net1 net3 VSS sky130_fd_pr__nfet_01v8_lvt L=15 W=2 nf=1 ad='int((nf+1)/2) * W/nf * 0.29' as='int((nf+2)/2) * W/nf * 0.29' pd='2*int((nf+1)/2) * (W/nf + 0.29)'
+ ps='2*int((nf+2)/2) * (W/nf + 0.29)' nrd='0.29 / W' nrs='0.29 / W' sa=0 sb=0 sd=0 mult=1 m=1
XM8 net3 VIN VSS VSS sky130_fd_pr__nfet_01v8_lvt L=15 W=2 nf=1 ad='int((nf+1)/2) * W/nf * 0.29' as='int((nf+2)/2) * W/nf * 0.29' pd='2*int((nf+1)/2) * (W/nf + 0.29)'
+ ps='2*int((nf+2)/2) * (W/nf + 0.29)' nrd='0.29 / W' nrs='0.29 / W' sa=0 sb=0 sd=0 mult=1 m=1
.ends


* expanding   symbol:  cyclic_flag.sym # of pins=7
** sym_path: /home/mthudaa/Documents/UNIC-CASS-TSAR-ADC-ITS/xschem/cyclic_flag.sym
** sch_path: /home/mthudaa/Documents/UNIC-CASS-TSAR-ADC-ITS/xschem/cyclic_flag.sch
.subckt cyclic_flag VDDD RDY EN CLKS VSSD CF[0] CF[1] CF[2] CF[3] CF[4] CF[5] CF[6] CF[7] CF[8] CF[9] FINAL
*.ipin RDY
*.ipin VDDD
*.ipin CLKS
*.ipin VSSD
*.opin CF[0],CF[1],CF[2],CF[3],CF[4],CF[5],CF[6],CF[7],CF[8],CF[9]
*.opin FINAL
*.ipin EN
x1 RDY EN CLKS VSSD VSSD VDDD VDDD CF[0] sky130_fd_sc_hd__dfrtp_2
x2 RDY CF[0] CLKS VSSD VSSD VDDD VDDD CF[1] sky130_fd_sc_hd__dfrtp_2
x3 RDY CF[1] CLKS VSSD VSSD VDDD VDDD CF[2] sky130_fd_sc_hd__dfrtp_2
x4 RDY CF[2] CLKS VSSD VSSD VDDD VDDD CF[3] sky130_fd_sc_hd__dfrtp_2
x5 CF[9] VSSD VSSD VDDD VDDD FINAL sky130_fd_sc_hd__buf_8
x6 RDY CF[3] CLKS VSSD VSSD VDDD VDDD CF[4] sky130_fd_sc_hd__dfrtp_2
x7 RDY CF[4] CLKS VSSD VSSD VDDD VDDD CF[5] sky130_fd_sc_hd__dfrtp_2
x8 RDY CF[5] CLKS VSSD VSSD VDDD VDDD CF[6] sky130_fd_sc_hd__dfrtp_2
x9 RDY CF[6] CLKS VSSD VSSD VDDD VDDD CF[7] sky130_fd_sc_hd__dfrtp_2
x10 RDY CF[7] CLKS VSSD VSSD VDDD VDDD CF[8] sky130_fd_sc_hd__dfrtp_2
x11 RDY CF[8] CLKS VSSD VSSD VDDD VDDD CF[9] sky130_fd_sc_hd__dfrtp_2
.ends


* expanding   symbol:  cdac_ctrl.sym # of pins=8
** sym_path: /home/mthudaa/Documents/UNIC-CASS-TSAR-ADC-ITS/xschem/cdac_ctrl.sym
** sch_path: /home/mthudaa/Documents/UNIC-CASS-TSAR-ADC-ITS/xschem/cdac_ctrl.sch
.subckt cdac_ctrl VDDD COMP_P COMP_N CF[0] CF[1] CF[2] CF[3] CF[4] CF[5] CF[6] CF[7] CF[8] CF[9] CLKS VSSD SWP[0] SWP[1] SWP[2]
+ SWP[3] SWP[4] SWP[5] SWP[6] SWP[7] SWP[8] SWP[9] SWN[0] SWN[1] SWN[2] SWN[3] SWN[4] SWN[5] SWN[6] SWN[7] SWN[8] SWN[9]
*.ipin VDDD
*.ipin CLKS
*.ipin VSSD
*.ipin COMP_N
*.ipin CF[0],CF[1],CF[2],CF[3],CF[4],CF[5],CF[6],CF[7],CF[8],CF[9]
*.opin SWP[0],SWP[1],SWP[2],SWP[3],SWP[4],SWP[5],SWP[6],SWP[7],SWP[8],SWP[9]
*.opin SWN[0],SWN[1],SWN[2],SWN[3],SWN[4],SWN[5],SWN[6],SWN[7],SWN[8],SWN[9]
*.ipin COMP_P
x1[0] CF[0] COMP_BUF_P CLKS VSSD VSSD VDDD VDDD SWP[0] sky130_fd_sc_hd__dfrtp_2
x1[1] CF[1] COMP_BUF_P CLKS VSSD VSSD VDDD VDDD SWP[1] sky130_fd_sc_hd__dfrtp_2
x1[2] CF[2] COMP_BUF_P CLKS VSSD VSSD VDDD VDDD SWP[2] sky130_fd_sc_hd__dfrtp_2
x1[3] CF[3] COMP_BUF_P CLKS VSSD VSSD VDDD VDDD SWP[3] sky130_fd_sc_hd__dfrtp_2
x1[4] CF[4] COMP_BUF_P CLKS VSSD VSSD VDDD VDDD SWP[4] sky130_fd_sc_hd__dfrtp_2
x1[5] CF[5] COMP_BUF_P CLKS VSSD VSSD VDDD VDDD SWP[5] sky130_fd_sc_hd__dfrtp_2
x1[6] CF[6] COMP_BUF_P CLKS VSSD VSSD VDDD VDDD SWP[6] sky130_fd_sc_hd__dfrtp_2
x1[7] CF[7] COMP_BUF_P CLKS VSSD VSSD VDDD VDDD SWP[7] sky130_fd_sc_hd__dfrtp_2
x1[8] CF[8] COMP_BUF_P CLKS VSSD VSSD VDDD VDDD SWP[8] sky130_fd_sc_hd__dfrtp_2
x1[9] CF[9] COMP_BUF_P CLKS VSSD VSSD VDDD VDDD SWP[9] sky130_fd_sc_hd__dfrtp_2
x1 COMP_P VSSD VSSD VDDD VDDD COMP_BUF_P sky130_fd_sc_hd__buf_8
x2[0] CF[0] COMP_BUF_N CLKS VSSD VSSD VDDD VDDD SWN[0] sky130_fd_sc_hd__dfrtp_2
x2[1] CF[1] COMP_BUF_N CLKS VSSD VSSD VDDD VDDD SWN[1] sky130_fd_sc_hd__dfrtp_2
x2[2] CF[2] COMP_BUF_N CLKS VSSD VSSD VDDD VDDD SWN[2] sky130_fd_sc_hd__dfrtp_2
x2[3] CF[3] COMP_BUF_N CLKS VSSD VSSD VDDD VDDD SWN[3] sky130_fd_sc_hd__dfrtp_2
x2[4] CF[4] COMP_BUF_N CLKS VSSD VSSD VDDD VDDD SWN[4] sky130_fd_sc_hd__dfrtp_2
x2[5] CF[5] COMP_BUF_N CLKS VSSD VSSD VDDD VDDD SWN[5] sky130_fd_sc_hd__dfrtp_2
x2[6] CF[6] COMP_BUF_N CLKS VSSD VSSD VDDD VDDD SWN[6] sky130_fd_sc_hd__dfrtp_2
x2[7] CF[7] COMP_BUF_N CLKS VSSD VSSD VDDD VDDD SWN[7] sky130_fd_sc_hd__dfrtp_2
x2[8] CF[8] COMP_BUF_N CLKS VSSD VSSD VDDD VDDD SWN[8] sky130_fd_sc_hd__dfrtp_2
x2[9] CF[9] COMP_BUF_N CLKS VSSD VSSD VDDD VDDD SWN[9] sky130_fd_sc_hd__dfrtp_2
x2 COMP_N VSSD VSSD VDDD VDDD COMP_BUF_N sky130_fd_sc_hd__buf_8
.ends


* expanding   symbol:  out_latch.sym # of pins=8
** sym_path: /home/mthudaa/Documents/UNIC-CASS-TSAR-ADC-ITS/xschem/out_latch.sym
** sch_path: /home/mthudaa/Documents/UNIC-CASS-TSAR-ADC-ITS/xschem/out_latch.sch
.subckt out_latch VDDD FINAL SWP[0] SWP[1] SWP[2] SWP[3] SWP[4] SWP[5] SWP[6] SWP[7] SWP[8] SWP[9] EN CLKS VSSD DOUT[0] DOUT[1]
+ DOUT[2] DOUT[3] DOUT[4] DOUT[5] DOUT[6] DOUT[7] DOUT[8] DOUT[9] CK
*.ipin VDDD
*.ipin CLKS
*.ipin VSSD
*.ipin FINAL
*.ipin SWP[0],SWP[1],SWP[2],SWP[3],SWP[4],SWP[5],SWP[6],SWP[7],SWP[8],SWP[9]
*.opin DOUT[0],DOUT[1],DOUT[2],DOUT[3],DOUT[4],DOUT[5],DOUT[6],DOUT[7],DOUT[8],DOUT[9]
*.opin CK
*.ipin EN
x1[0] CK SWP[0] EN VSSD VSSD VDDD VDDD DOUT[0] sky130_fd_sc_hd__dfrtp_2
x1[1] CK SWP[1] EN VSSD VSSD VDDD VDDD DOUT[1] sky130_fd_sc_hd__dfrtp_2
x1[2] CK SWP[2] EN VSSD VSSD VDDD VDDD DOUT[2] sky130_fd_sc_hd__dfrtp_2
x1[3] CK SWP[3] EN VSSD VSSD VDDD VDDD DOUT[3] sky130_fd_sc_hd__dfrtp_2
x1[4] CK SWP[4] EN VSSD VSSD VDDD VDDD DOUT[4] sky130_fd_sc_hd__dfrtp_2
x1[5] CK SWP[5] EN VSSD VSSD VDDD VDDD DOUT[5] sky130_fd_sc_hd__dfrtp_2
x1[6] CK SWP[6] EN VSSD VSSD VDDD VDDD DOUT[6] sky130_fd_sc_hd__dfrtp_2
x1[7] CK SWP[7] EN VSSD VSSD VDDD VDDD DOUT[7] sky130_fd_sc_hd__dfrtp_2
x1[8] CK SWP[8] EN VSSD VSSD VDDD VDDD DOUT[8] sky130_fd_sc_hd__dfrtp_2
x1[9] CK SWP[9] EN VSSD VSSD VDDD VDDD DOUT[9] sky130_fd_sc_hd__dfrtp_2
x1 FINAL CLKS VSSD VSSD VDDD VDDD CK sky130_fd_sc_hd__and2_1
.ends


* expanding   symbol:  10b_cap_array.sym # of pins=3
** sym_path: /home/mthudaa/Documents/UNIC-CASS-TSAR-ADC-ITS/xschem/10b_cap_array.sym
** sch_path: /home/mthudaa/Documents/UNIC-CASS-TSAR-ADC-ITS/xschem/10b_cap_array.sch
.subckt 10b_cap_array vcm sw[0] sw[1] sw[2] sw[3] sw[4] sw[5] sw[6] sw[7] sw[8] sw[9] vc
*.ipin sw[0],sw[1],sw[2],sw[3],sw[4],sw[5],sw[6],sw[7],sw[8],sw[9]
*.ipin vcm
*.iopin vc
XC1 vc sw[0] sky130_fd_pr__cap_mim_m3_1 W=2 L=2 MF=512 m=512
XC2 vc sw[1] sky130_fd_pr__cap_mim_m3_1 W=2 L=2 MF=256 m=256
XC3 vc sw[2] sky130_fd_pr__cap_mim_m3_1 W=2 L=2 MF=128 m=128
XC4 vc sw[3] sky130_fd_pr__cap_mim_m3_1 W=2 L=2 MF=64 m=64
XC5 vc sw[4] sky130_fd_pr__cap_mim_m3_1 W=2 L=2 MF=32 m=32
XC6 vc sw[5] sky130_fd_pr__cap_mim_m3_1 W=2 L=2 MF=16 m=16
XC7 vc sw[6] sky130_fd_pr__cap_mim_m3_1 W=2 L=2 MF=8 m=8
XC8 vc sw[7] sky130_fd_pr__cap_mim_m3_1 W=2 L=2 MF=4 m=4
XC9 vc sw[8] sky130_fd_pr__cap_mim_m3_1 W=2 L=2 MF=2 m=2
XC10 vc sw[9] sky130_fd_pr__cap_mim_m3_1 W=2 L=2 MF=1 m=1
XC11 vc vcm sky130_fd_pr__cap_mim_m3_1 W=2 L=2 MF=1 m=1
.ends


* expanding   symbol:  cdac_sw_16.sym # of pins=6
** sym_path: /home/mthudaa/Documents/UNIC-CASS-TSAR-ADC-ITS/xschem/cdac_sw_16.sym
** sch_path: /home/mthudaa/Documents/UNIC-CASS-TSAR-ADC-ITS/xschem/cdac_sw_16.sch
.subckt cdac_sw_16 vdda cki bi vcm vssa dac_out
*.ipin vdda
*.ipin cki
*.ipin bi
*.ipin vcm
*.ipin vssa
*.opin dac_out
x1 vdda cki vssa clk0 clkb0 clk1 clkb1 nooverlap_clk
x2 vdda clkb1 clk1 vssa vcm dac_out tg_sw_16
x3 vdda bi clk0 clkb0 vssa dac_out dac_sw_16
.ends


* expanding   symbol:  cdac_sw_8.sym # of pins=6
** sym_path: /home/mthudaa/Documents/UNIC-CASS-TSAR-ADC-ITS/xschem/cdac_sw_8.sym
** sch_path: /home/mthudaa/Documents/UNIC-CASS-TSAR-ADC-ITS/xschem/cdac_sw_8.sch
.subckt cdac_sw_8 vdda cki bi vcm vssa dac_out
*.ipin vdda
*.ipin cki
*.ipin bi
*.ipin vcm
*.ipin vssa
*.opin dac_out
x1 vdda cki vssa clk0 clkb0 clk1 clkb1 nooverlap_clk
x2 vdda clkb1 clk1 vssa vcm dac_out tg_sw_8
x3 vdda bi clk0 clkb0 vssa dac_out dac_sw_8
.ends


* expanding   symbol:  cdac_sw_4.sym # of pins=6
** sym_path: /home/mthudaa/Documents/UNIC-CASS-TSAR-ADC-ITS/xschem/cdac_sw_4.sym
** sch_path: /home/mthudaa/Documents/UNIC-CASS-TSAR-ADC-ITS/xschem/cdac_sw_4.sch
.subckt cdac_sw_4 vdda cki bi vcm vssa dac_out
*.ipin vdda
*.ipin cki
*.ipin bi
*.ipin vcm
*.ipin vssa
*.opin dac_out
x1 vdda cki vssa clk0 clkb0 clk1 clkb1 nooverlap_clk
x2 vdda clkb1 clk1 vssa vcm dac_out tg_sw_4
x3 vdda bi clk0 clkb0 vssa dac_out dac_sw_4
.ends


* expanding   symbol:  cdac_sw_2.sym # of pins=6
** sym_path: /home/mthudaa/Documents/UNIC-CASS-TSAR-ADC-ITS/xschem/cdac_sw_2.sym
** sch_path: /home/mthudaa/Documents/UNIC-CASS-TSAR-ADC-ITS/xschem/cdac_sw_2.sch
.subckt cdac_sw_2 vdda cki bi vcm vssa dac_out
*.ipin vdda
*.ipin cki
*.ipin bi
*.ipin vcm
*.ipin vssa
*.opin dac_out
x1 vdda cki vssa clk0 clkb0 clk1 clkb1 nooverlap_clk
x2 vdda clkb1 clk1 vssa vcm dac_out tg_sw_2
x3 vdda bi clk0 clkb0 vssa dac_out dac_sw_2
.ends


* expanding   symbol:  cdac_sw_1.sym # of pins=6
** sym_path: /home/mthudaa/Documents/UNIC-CASS-TSAR-ADC-ITS/xschem/cdac_sw_1.sym
** sch_path: /home/mthudaa/Documents/UNIC-CASS-TSAR-ADC-ITS/xschem/cdac_sw_1.sch
.subckt cdac_sw_1 vdda cki bi vcm vssa dac_out
*.ipin vdda
*.ipin cki
*.ipin bi
*.ipin vcm
*.ipin vssa
*.opin dac_out
x1 vdda cki vssa clk0 clkb0 clk1 clkb1 nooverlap_clk
x2 vdda clkb1 clk1 vssa vcm dac_out tg_sw_1
x3 vdda bi clk0 clkb0 vssa dac_out dac_sw_1
.ends


* expanding   symbol:  nooverlap_clk.sym # of pins=7
** sym_path: /home/mthudaa/Documents/UNIC-CASS-TSAR-ADC-ITS/xschem/nooverlap_clk.sym
** sch_path: /home/mthudaa/Documents/UNIC-CASS-TSAR-ADC-ITS/xschem/nooverlap_clk.sch
.subckt nooverlap_clk vdda in vssa clk0 clkb0 clk1 clkb1
*.ipin vdda
*.ipin in
*.ipin vssa
*.opin clk0
*.opin clkb0
*.opin clk1
*.opin clkb1
x1 in a vssa vssa vdda vdda net5 sky130_fd_sc_hd__nand2_1
x2 b net1 vssa vssa vdda vdda net2 sky130_fd_sc_hd__nand2_1
x3 in vssa vssa vdda vdda net1 sky130_fd_sc_hd__inv_1
x4 net5 vssa vssa vdda vdda net4 sky130_fd_sc_hd__inv_1
x5 net2 vssa vssa vdda vdda net3 sky130_fd_sc_hd__inv_1
x6 net4 vssa vssa vdda vdda b sky130_fd_sc_hd__inv_1
x7 net3 vssa vssa vdda vdda a sky130_fd_sc_hd__inv_1
x8 b vssa vssa vdda vdda net6 sky130_fd_sc_hd__inv_4
x9 a vssa vssa vdda vdda net7 sky130_fd_sc_hd__inv_4
x10 net6 vssa vssa vdda vdda clkb0 sky130_fd_sc_hd__inv_8
x11 net7 vssa vssa vdda vdda clkb1 sky130_fd_sc_hd__inv_8
x12 clkb0 vssa vssa vdda vdda clk0 sky130_fd_sc_hd__inv_8
x13 clkb1 vssa vssa vdda vdda clk1 sky130_fd_sc_hd__inv_8
.ends


* expanding   symbol:  tg_sw_16.sym # of pins=6
** sym_path: /home/mthudaa/Documents/UNIC-CASS-TSAR-ADC-ITS/xschem/tg_sw_16.sym
** sch_path: /home/mthudaa/Documents/UNIC-CASS-TSAR-ADC-ITS/xschem/tg_sw_16.sch
.subckt tg_sw_16 vdda swp swn vssa in out
*.ipin vdda
*.ipin swp
*.ipin swn
*.ipin vssa
*.iopin in
*.iopin out
XM1 in swp out vdda sky130_fd_pr__pfet_01v8 L=0.5 W=1.5 nf=1 ad='int((nf+1)/2) * W/nf * 0.29' as='int((nf+2)/2) * W/nf * 0.29' pd='2*int((nf+1)/2) * (W/nf + 0.29)'
+ ps='2*int((nf+2)/2) * (W/nf + 0.29)' nrd='0.29 / W' nrs='0.29 / W' sa=0 sb=0 sd=0 mult=16 m=16
XM2 in swn out vssa sky130_fd_pr__nfet_01v8 L=0.5 W=0.5 nf=1 ad='int((nf+1)/2) * W/nf * 0.29' as='int((nf+2)/2) * W/nf * 0.29' pd='2*int((nf+1)/2) * (W/nf + 0.29)'
+ ps='2*int((nf+2)/2) * (W/nf + 0.29)' nrd='0.29 / W' nrs='0.29 / W' sa=0 sb=0 sd=0 mult=16 m=16
.ends


* expanding   symbol:  dac_sw_16.sym # of pins=6
** sym_path: /home/mthudaa/Documents/UNIC-CASS-TSAR-ADC-ITS/xschem/dac_sw_16.sym
** sch_path: /home/mthudaa/Documents/UNIC-CASS-TSAR-ADC-ITS/xschem/dac_sw_16.sch
.subckt dac_sw_16 vdda in ck ckb vssa out
*.ipin vdda
*.ipin in
*.ipin ck
*.ipin ckb
*.ipin vssa
*.opin out
XM1 net1 in vdda vdda sky130_fd_pr__pfet_01v8 L=0.5 W=1.5 nf=1 ad='int((nf+1)/2) * W/nf * 0.29' as='int((nf+2)/2) * W/nf * 0.29' pd='2*int((nf+1)/2) * (W/nf + 0.29)'
+ ps='2*int((nf+2)/2) * (W/nf + 0.29)' nrd='0.29 / W' nrs='0.29 / W' sa=0 sb=0 sd=0 mult=16 m=16
XM2 out ckb net1 vdda sky130_fd_pr__pfet_01v8 L=0.5 W=1.5 nf=1 ad='int((nf+1)/2) * W/nf * 0.29' as='int((nf+2)/2) * W/nf * 0.29' pd='2*int((nf+1)/2) * (W/nf + 0.29)'
+ ps='2*int((nf+2)/2) * (W/nf + 0.29)' nrd='0.29 / W' nrs='0.29 / W' sa=0 sb=0 sd=0 mult=16 m=16
XM3 out ck net2 vssa sky130_fd_pr__nfet_01v8 L=0.5 W=0.5 nf=1 ad='int((nf+1)/2) * W/nf * 0.29' as='int((nf+2)/2) * W/nf * 0.29' pd='2*int((nf+1)/2) * (W/nf + 0.29)'
+ ps='2*int((nf+2)/2) * (W/nf + 0.29)' nrd='0.29 / W' nrs='0.29 / W' sa=0 sb=0 sd=0 mult=16 m=16
XM4 net2 in vssa vssa sky130_fd_pr__nfet_01v8 L=0.5 W=0.5 nf=1 ad='int((nf+1)/2) * W/nf * 0.29' as='int((nf+2)/2) * W/nf * 0.29' pd='2*int((nf+1)/2) * (W/nf + 0.29)'
+ ps='2*int((nf+2)/2) * (W/nf + 0.29)' nrd='0.29 / W' nrs='0.29 / W' sa=0 sb=0 sd=0 mult=16 m=16
.ends


* expanding   symbol:  tg_sw_8.sym # of pins=6
** sym_path: /home/mthudaa/Documents/UNIC-CASS-TSAR-ADC-ITS/xschem/tg_sw_8.sym
** sch_path: /home/mthudaa/Documents/UNIC-CASS-TSAR-ADC-ITS/xschem/tg_sw_8.sch
.subckt tg_sw_8 vdda swp swn vssa in out
*.ipin vdda
*.ipin swp
*.ipin swn
*.ipin vssa
*.iopin in
*.iopin out
XM1 in swp out vdda sky130_fd_pr__pfet_01v8 L=0.5 W=1.5 nf=1 ad='int((nf+1)/2) * W/nf * 0.29' as='int((nf+2)/2) * W/nf * 0.29' pd='2*int((nf+1)/2) * (W/nf + 0.29)'
+ ps='2*int((nf+2)/2) * (W/nf + 0.29)' nrd='0.29 / W' nrs='0.29 / W' sa=0 sb=0 sd=0 mult=8 m=8
XM2 in swn out vssa sky130_fd_pr__nfet_01v8 L=0.5 W=0.5 nf=1 ad='int((nf+1)/2) * W/nf * 0.29' as='int((nf+2)/2) * W/nf * 0.29' pd='2*int((nf+1)/2) * (W/nf + 0.29)'
+ ps='2*int((nf+2)/2) * (W/nf + 0.29)' nrd='0.29 / W' nrs='0.29 / W' sa=0 sb=0 sd=0 mult=8 m=8
.ends


* expanding   symbol:  dac_sw_8.sym # of pins=6
** sym_path: /home/mthudaa/Documents/UNIC-CASS-TSAR-ADC-ITS/xschem/dac_sw_8.sym
** sch_path: /home/mthudaa/Documents/UNIC-CASS-TSAR-ADC-ITS/xschem/dac_sw_8.sch
.subckt dac_sw_8 vdda in ck ckb vssa out
*.ipin vdda
*.ipin in
*.ipin ck
*.ipin ckb
*.ipin vssa
*.opin out
XM1 net1 in vdda vdda sky130_fd_pr__pfet_01v8 L=0.5 W=1.5 nf=1 ad='int((nf+1)/2) * W/nf * 0.29' as='int((nf+2)/2) * W/nf * 0.29' pd='2*int((nf+1)/2) * (W/nf + 0.29)'
+ ps='2*int((nf+2)/2) * (W/nf + 0.29)' nrd='0.29 / W' nrs='0.29 / W' sa=0 sb=0 sd=0 mult=8 m=8
XM2 out ckb net1 vdda sky130_fd_pr__pfet_01v8 L=0.5 W=1.5 nf=1 ad='int((nf+1)/2) * W/nf * 0.29' as='int((nf+2)/2) * W/nf * 0.29' pd='2*int((nf+1)/2) * (W/nf + 0.29)'
+ ps='2*int((nf+2)/2) * (W/nf + 0.29)' nrd='0.29 / W' nrs='0.29 / W' sa=0 sb=0 sd=0 mult=8 m=8
XM3 out ck net2 vssa sky130_fd_pr__nfet_01v8 L=0.5 W=0.5 nf=1 ad='int((nf+1)/2) * W/nf * 0.29' as='int((nf+2)/2) * W/nf * 0.29' pd='2*int((nf+1)/2) * (W/nf + 0.29)'
+ ps='2*int((nf+2)/2) * (W/nf + 0.29)' nrd='0.29 / W' nrs='0.29 / W' sa=0 sb=0 sd=0 mult=8 m=8
XM4 net2 in vssa vssa sky130_fd_pr__nfet_01v8 L=0.5 W=0.5 nf=1 ad='int((nf+1)/2) * W/nf * 0.29' as='int((nf+2)/2) * W/nf * 0.29' pd='2*int((nf+1)/2) * (W/nf + 0.29)'
+ ps='2*int((nf+2)/2) * (W/nf + 0.29)' nrd='0.29 / W' nrs='0.29 / W' sa=0 sb=0 sd=0 mult=8 m=8
.ends


* expanding   symbol:  tg_sw_4.sym # of pins=6
** sym_path: /home/mthudaa/Documents/UNIC-CASS-TSAR-ADC-ITS/xschem/tg_sw_4.sym
** sch_path: /home/mthudaa/Documents/UNIC-CASS-TSAR-ADC-ITS/xschem/tg_sw_4.sch
.subckt tg_sw_4 vdda swp swn vssa in out
*.ipin vdda
*.ipin swp
*.ipin swn
*.ipin vssa
*.iopin in
*.iopin out
XM1 in swp out vdda sky130_fd_pr__pfet_01v8 L=0.5 W=1.5 nf=1 ad='int((nf+1)/2) * W/nf * 0.29' as='int((nf+2)/2) * W/nf * 0.29' pd='2*int((nf+1)/2) * (W/nf + 0.29)'
+ ps='2*int((nf+2)/2) * (W/nf + 0.29)' nrd='0.29 / W' nrs='0.29 / W' sa=0 sb=0 sd=0 mult=4 m=4
XM2 in swn out vssa sky130_fd_pr__nfet_01v8 L=0.5 W=0.5 nf=1 ad='int((nf+1)/2) * W/nf * 0.29' as='int((nf+2)/2) * W/nf * 0.29' pd='2*int((nf+1)/2) * (W/nf + 0.29)'
+ ps='2*int((nf+2)/2) * (W/nf + 0.29)' nrd='0.29 / W' nrs='0.29 / W' sa=0 sb=0 sd=0 mult=4 m=4
.ends


* expanding   symbol:  dac_sw_4.sym # of pins=6
** sym_path: /home/mthudaa/Documents/UNIC-CASS-TSAR-ADC-ITS/xschem/dac_sw_4.sym
** sch_path: /home/mthudaa/Documents/UNIC-CASS-TSAR-ADC-ITS/xschem/dac_sw_4.sch
.subckt dac_sw_4 vdda in ck ckb vssa out
*.ipin vdda
*.ipin in
*.ipin ck
*.ipin ckb
*.ipin vssa
*.opin out